/batch
/config,noeldb,1     ! force off writing results to database
*get,_wallstrt,active,,time,wall
! ANSYS input file written by Workbench version 2021 R1
! File used for geometry attach: C:\Users\ASUS\Documents\ANSYS\ANSYS2021\Sec14-3\Seal_files\dp0\SYS\DM\SYS.agdb
/title,Seal--Static Structural (A5)
! ****** Begin Custom Load Command Snippet ******
/COM, ACT Extensions:
/COM,     LSDYNA, 2021.1
/COM,     5f463412-bd3e-484b-87e7-cbc0a665e474, wbex
/COM,
! ****** End   Custom Load Command Snippet ******
*DIM,_wb_ProjectScratch_dir,string,248
_wb_ProjectScratch_dir(1) = 'C:\Users\ASUS\Documents\ANSYS\ANSYS2021\Sec14-3\_ProjectScratch\Scr7F7D\'
*DIM,_wb_SolverFiles_dir,string,248
_wb_SolverFiles_dir(1) = 'C:\Users\ASUS\Documents\ANSYS\ANSYS2021\Sec14-3\Seal_files\dp0\SYS\MECH\'
*DIM,_wb_userfiles_dir,string,248
_wb_userfiles_dir(1) = 'C:\Users\ASUS\Documents\ANSYS\ANSYS2021\Sec14-3\Seal_files\user_files\'
/com,--- Data in consistent BIN units. See Solving Units in the help system for more information.
/units,BIN
/nopr
/wb,file,start              !  signify a WB generated input file
/prep7
! Turn off shape checking because checks already performed inside WB mesher.
! See help system for more information.
SHPP,OFF,,NOWARN
/nolist
etcon,set             ! allow ANSYS to choose best KEYOP's for 180x elements, resets any applicable keyopt to MAPDL defaults
/com,*********** Nodes for the whole assembly ***********
nblock,3,,7387
(1i9,3e20.9e3)
        1     2.133487641E-01     1.330000000E-01     0.000000000E+00
        2     5.000000000E-02     1.330000000E-01     0.000000000E+00
        3     1.929301686E-01     1.330000000E-01     0.000000000E+00
        4     1.725115730E-01     1.330000000E-01     0.000000000E+00
        5     1.520929775E-01     1.330000000E-01     0.000000000E+00
        6     1.316743820E-01     1.330000000E-01     0.000000000E+00
        7     1.112557865E-01     1.330000000E-01     0.000000000E+00
        8     9.083719102E-02     1.330000000E-01     0.000000000E+00
        9     7.041859551E-02     1.330000000E-01     0.000000000E+00
       10     0.000000000E+00     8.300000000E-02     0.000000000E+00
       11     3.074729228E-02     1.291446990E-01     0.000000000E+00
       12     1.446358389E-02     1.181733298E-01     0.000000000E+00
       13     3.660018735E-03     1.017778097E-01     0.000000000E+00
       14     0.000000000E+00     5.000000000E-02     0.000000000E+00
       15     0.000000000E+00     6.650000000E-02     0.000000000E+00
       16     5.000000000E-02     0.000000000E+00     0.000000000E+00
       17     3.855301005E-03     3.074729228E-02     0.000000000E+00
       18     1.482667019E-02     1.446358389E-02     0.000000000E+00
       19     3.122219032E-02     3.660018735E-03     0.000000000E+00
       20     2.174650188E-01     0.000000000E+00     0.000000000E+00
! ... 6697 like lines cut
/wb,elem,start            !  set before creation of elements
/com,*********** Elements for Body 1 "Rubber" ***********
et,1,183
keyo,1,3,2
eblock,19,solid,,463
(19i9)
        1        1        1        1        0        0        0        0        8        0        1      191      529      263      263      959     1167      263      956
        1        1        1        1        0        0        0        0        8        0        2      268      267      180      180     1175      919      180      920
        1        1        1        1        0        0        0        0        8        0        3      529      190      264      264      955      953      264     1170
        1        1        1        1        0        0        0        0        8        0        4      522      535      183      183     1549      934      183      932
        1        1        1        1        0        0        0        0        8        0        5      175      205      538      538      900      998      538      903
        1        1        1        1        0        0        0        0        8        0        6      189      290      291      170      952     1237      884      883
        1        1        1        1        0        0        0        0        8        0        7      189      170      530      180      883      886      921      918
        1        1        1        1        0        0        0        0        8        0        8      530      170      445      444      886      885     1468     1469
        1        1        1        1        0        0        0        0        8        0        9      170      291      446      445      884     1239     1470      885
        1        1        1        1        0        0        0        0        8        0       10      290      190      529      191      954      955      959      957
        1        1        1        1        0        0        0        0        8        0       11      191      292      291      290      958     1238     1237      957
        1        1        1        1        0        0        0        0        8        0       12      278      543      423      422     1206     1444     1442     1204
        1        1        1        1        0        0        0        0        8        0       13      527      279      543      278     1209     1210     1206     1205
        1        1        1        1        0        0        0        0        8        0       14      430      343      432      431     1351     1352     1453     1452
        1        1        1        1        0        0        0        0        8        0       15      280      343      430      429     1211     1351     1451     1212
        1        1        1        1        0        0        0        0        8        0       16      196      197      198      171      975      977      888      887
        1        1        1        1        0        0        0        0        8        0       17      196      171      334      333      887      889     1327      976
        1        1        1        1        0        0        0        0        8        0       18      171      198      335      334      888      980     1329      889
        1        1        1        1        0        0        0        0        8        0       19      426      425      424      172     1446     1445      890      891
        1        1        1        1        0        0        0        0        8        0       20      172      543      427      426      892     1449     1447      891
! ... 444 like lines cut
!Material Id = {5D1BED0C-EFFA-4533-B74D-5E4F2E87A206}
/com,*********** Elements for Body 2 "Upper Plate" ***********
et,2,183
keyo,2,3,2
eblock,19,solid,,800
(19i9)
        2        2        2        2        0        0        0        0        8        0     1264     4421     4945     5026     4316     5695     6683     5386     5385
        2        2        2        2        0        0        0        0        8        0     1265     4316     4366     4484     4421     5383     5555     5693     5385
        2        2        2        2        0        0        0        0        8        0     1266     5026     4955     4367     4316     6687     5560     5384     5386
        2        2        2        2        0        0        0        0        8        0     1267     4367     4485     4366     4316     5558     5556     5383     5384
        2        2        2        2        0        0        0        0        8        0     1268     4945     4420     4317     5026     5691     5387     5390     6683
        2        2        2        2        0        0        0        0        8        0     1269     4420     5006     4977     4317     5692     6708     5389     5387
        2        2        2        2        0        0        0        0        8        0     1270     4977     5007     4422     4317     6709     5698     5388     5389
        2        2        2        2        0        0        0        0        8        0     1271     4317     4422     4955     5026     5388     5697     6687     5390
        2        2        2        2        0        0        0        0        8        0     1272     5006     4419     4318     4977     5689     5392     5394     6708
        2        2        2        2        0        0        0        0        8        0     1273     4419     4418     4319     4318     5685     5396     5391     5392
        2        2        2        2        0        0        0        0        8        0     1274     4319     4424     4423     4318     5397     5699     5393     5391
        2        2        2        2        0        0        0        0        8        0     1275     4318     4423     5007     4977     5393     5701     6709     5394
        2        2        2        2        0        0        0        0        8        0     1276     4418     4991     4320     4319     5687     5399     5395     5396
        2        2        2        2        0        0        0        0        8        0     1277     4991     4940     5025     4320     6677     6678     5400     5399
        2        2        2        2        0        0        0        0        8        0     1278     5025     4426     4425     4320     5708     5704     5398     5400
        2        2        2        2        0        0        0        0        8        0     1279     4320     4425     4424     4319     5398     5702     5397     5395
        2        2        2        2        0        0        0        0        8        0     1280     4940     4417     4321     5025     5683     5401     5404     6678
        2        2        2        2        0        0        0        0        8        0     1281     4417     5009     4976     4321     5684     6707     5403     5401
        2        2        2        2        0        0        0        0        8        0     1282     4976     5008     4427     4321     6706     5710     5402     5403
        2        2        2        2        0        0        0        0        8        0     1283     4321     4427     4426     5025     5402     5706     5708     5404
! ... 781 like lines cut
!Material Id = {6AEC05CE-55E4-4865-816E-5EB30D628789}
/com,*********** Elements for Body 3 "Lower Plate" ***********
et,3,183
keyo,3,3,2
eblock,19,solid,,800
(19i9)
        3        3        3        3        0        0        0        0        8        0      464     1773     1812     1811     1735     2925     3036     2805     2803
        3        3        3        3        0        0        0        0        8        0      465     1735     1792     1895     1773     2804     2989     2926     2803
        3        3        3        3        0        0        0        0        8        0      466     1811     1810     1736     1735     3034     2806     2802     2805
        3        3        3        3        0        0        0        0        8        0      467     1736     1896     1792     1735     2807     2990     2804     2802
        3        3        3        3        0        0        0        0        8        0      468     1810     1809     2374     1736     3031     3032     2808     2806
        3        3        3        3        0        0        0        0        8        0      469     2374     2395     1896     1736     4106     3232     2807     2808
        3        3        3        3        0        0        0        0        8        0      470     1773     1772     2418     1812     2922     2924     3039     2925
        3        3        3        3        0        0        0        0        8        0      471     1772     1771     1813     2418     2919     2920     3042     2924
        3        3        3        3        0        0        0        0        8        0      472     1771     1770     1814     1813     2916     2917     3040     2920
        3        3        3        3        0        0        0        0        8        0      473     1770     1769     1815     1814     2913     2914     3043     2917
        3        3        3        3        0        0        0        0        8        0      474     1769     1768     1816     1815     2910     2911     3045     2914
        3        3        3        3        0        0        0        0        8        0      475     1768     1767     1817     1816     2907     2908     3047     2911
        3        3        3        3        0        0        0        0        8        0      476     1767     1766     2417     1817     2904     2906     3050     2908
        3        3        3        3        0        0        0        0        8        0      477     1766     1765     1818     2417     2901     2902     3053     2906
        3        3        3        3        0        0        0        0        8        0      478     1765     1764     1819     1818     2898     2899     3051     2902
        3        3        3        3        0        0        0        0        8        0      479     1764     1763     1820     1819     2895     2896     3054     2899
        3        3        3        3        0        0        0        0        8        0      480     1763     1762     1821     1820     2892     2893     3056     2896
        3        3        3        3        0        0        0        0        8        0      481     1762     1761     1822     1821     2889     2890     3058     2893
        3        3        3        3        0        0        0        0        8        0      482     1761     1760     2416     1822     2886     2888     3061     2890
        3        3        3        3        0        0        0        0        8        0      483     1760     1759     1823     2416     2883     2884     3064     2888
! ... 781 like lines cut
!Material Id = {46C040DC-78D9-4ED2-B7B2-A6AA323CBB9C}
/wb,elem,end               !  done creating elements
/com,*********** Send User Defined Coordinate System(s) ***********
csys,0
toffst,459.67,  ! Temperature offset from absolute zero
/com,*********** Set Reference Temperature ***********
tref,71.6
/wb,mat,start              !  starting to send materials
/com,*********** Send Materials ***********

TB,HYPE,1,1,2,MOON
TBTEMP,70.0000000000001
TBDATA,1,103.174841854963,-4.8079369119799,0

Temperature = 'TEMP' ! Temperature
MP,DENS,2,0.000734544492879577,	! slinch in^-3
MP,ALPX,2,6.66666666666667e-06,	! F^-1
MP,C,2,373722.969668162,	! in^2 s^-2 F^-1
MP,KXX,2,7.55607836445752,	! slinch in s^-3 F^-1
MP,RSVX,2,8.52348993288591,	! ohm cmil in^-1
MP,EX,2,29007547.5428236,	! slinch s^-2 in^-1
MP,NUXY,2,0.3,
MP,MURX,2,10000,

Temperature = 'TEMP' ! Temperature
MP,DENS,3,0.000734544492879577,	! slinch in^-3
MP,ALPX,3,6.66666666666667e-06,	! F^-1
MP,C,3,373722.969668162,	! in^2 s^-2 F^-1
MP,KXX,3,7.55607836445752,	! slinch in s^-3 F^-1
MP,RSVX,3,8.52348993288591,	! ohm cmil in^-1
MP,EX,3,29007547.5428236,	! slinch s^-2 in^-1
MP,NUXY,3,0.3,
MP,MURX,3,10000,

/wb,mat,end                !  done sending materials
/com,*********** Send Sheet Properties ***********
!************************* Model Summary ********************
!Rubber,	Rubber,	matid,	1
!Upper Plate,	Structural Steel,	matid,	2
!Lower Plate,	Structural Steel,	matid,	3
!************************* End Model Summary ********************
! get the diagonal of the bounding box. Needed later for other things
*get,_xmin,node,,mnloc,x
*get,_ymin,node,,mnloc,y
*get,_zmin,node,,mnloc,z
*get,_xmax,node,,mxloc,x
*get,_ymax,node,,mxloc,y
*get,_zmax,node,,mxloc,z
_ASMDIAG=(_xmax-_xmin)*(_xmax-_xmin)+(_ymax-_ymin)*(_ymax-_ymin)+(_zmax-_zmin)*(_zmax-_zmin)
_ASMDIAG=SQRT(_ASMDIAG)
/wb,contact,start          !  starting to send contact
/com,*********** Create Contact "Frictionless - Rubber To Upper Plate" ***********
/com,            Real Constant Set For Above Contact Is 5 & 4 
*set,tid,5
*set,cid,4
r,tid
r,cid
et,tid,169
et,cid,172
eblock,10,,,82
(15i9)
     2064        4        4        4        0      111      103      750
     2065        4        4        4        0      110      111      765
     2066        4        4        4        0      109      110      763
     2067        4        4        4        0      108      109      761
     2068        4        4        4        0      107      108      759
     2069        4        4        4        0      106      107      757
     2070        4        4        4        0      105      106      755
     2071        4        4        4        0      104      105      753
     2072        4        4        4        0       96      104      738
     2073        4        4        4        0      122      112      768
     2074        4        4        4        0      121      122      787
     2075        4        4        4        0      120      121      785
     2076        4        4        4        0      119      120      783
     2077        4        4        4        0      118      119      781
     2078        4        4        4        0      117      118      779
     2079        4        4        4        0      116      117      777
     2080        4        4        4        0      115      116      775
     2081        4        4        4        0      114      115      773
     2082        4        4        4        0      113      114      771
     2083        4        4        4        0      103      113      751
! ... 63 like lines cut
eblock,10,,,80
(15i9)
     2146        5        4        5        0     4237     4137     5030
     2147        5        4        5        0     4238     4237     5226
     2148        5        4        5        0     4239     4238     5228
     2149        5        4        5        0     4240     4239     5230
     2150        5        4        5        0     4241     4240     5232
     2151        5        4        5        0     4242     4241     5234
     2152        5        4        5        0     4243     4242     5236
     2153        5        4        5        0     4244     4243     5238
     2154        5        4        5        0     4245     4244     5240
     2155        5        4        5        0     4246     4245     5242
     2156        5        4        5        0     4247     4246     5244
     2157        5        4        5        0     4248     4247     5246
     2158        5        4        5        0     4249     4248     5248
     2159        5        4        5        0     4250     4249     5250
     2160        5        4        5        0     4251     4250     5252
     2161        5        4        5        0     4252     4251     5254
     2162        5        4        5        0     4253     4252     5256
     2163        5        4        5        0     4254     4253     5258
     2164        5        4        5        0     4255     4254     5260
     2165        5        4        5        0     4256     4255     5262
! ... 61 like lines cut
keyo,cid,10,0              ! adjust contact stiffness each NR iteration (from Program Controlled setting)
keyo,cid,12,0              ! standard contact
keyo,cid,2,0               ! augmented Lagrange (from Program Controlled setting)
keyo,cid,4,0               ! on Gauss point (from Program Controlled setting)
keyo,cid,9,0               ! use real geometry with stepped effects
keyo,cid,7,0               ! No Prediction
rmod,cid,3,1.       ! FKN
rmod,cid,5,0.       ! ICONT
rmod,cid,6,1.       ! PINB
rmod,cid,10,0.      ! CNOF
rmod,cid,12,0.      ! FKT
rmod,cid,36,31      ! WB DSID
/com,*********** Create Contact "Frictionless - Rubber To Lower Plate" ***********
/com,            Real Constant Set For Above Contact Is 7 & 6 
*set,tid,7
*set,cid,6
r,tid
r,cid
et,tid,169
et,cid,172
eblock,10,,,80
(15i9)
     2226        6        6        6        0       94       95      734
     2227        6        6        6        0       93       94      732
     2228        6        6        6        0       92       93      730
     2229        6        6        6        0       91       92      728
     2230        6        6        6        0       90       91      726
     2231        6        6        6        0       89       90      724
     2232        6        6        6        0       88       89      722
     2233        6        6        6        0       79       88      705
     2234        6        6        6        0       95       87      720
     2235        6        6        6        0       80       79      704
     2236        6        6        6        0       81       80      707
     2237        6        6        6        0       82       81      709
     2238        6        6        6        0       83       82      711
     2239        6        6        6        0       84       83      713
     2240        6        6        6        0       85       84      715
     2241        6        6        6        0       86       85      717
     2242        6        6        6        0       39       86      625
     2243        6        6        6        0       78       39      624
     2244        6        6        6        0       77       78      701
     2245        6        6        6        0       76       77      699
! ... 61 like lines cut
eblock,10,,,80
(15i9)
     2306        7        6        7        0     1656     1556     2449
     2307        7        6        7        0     1657     1656     2645
     2308        7        6        7        0     1658     1657     2647
     2309        7        6        7        0     1659     1658     2649
     2310        7        6        7        0     1660     1659     2651
     2311        7        6        7        0     1661     1660     2653
     2312        7        6        7        0     1662     1661     2655
     2313        7        6        7        0     1663     1662     2657
     2314        7        6        7        0     1664     1663     2659
     2315        7        6        7        0     1665     1664     2661
     2316        7        6        7        0     1666     1665     2663
     2317        7        6        7        0     1667     1666     2665
     2318        7        6        7        0     1668     1667     2667
     2319        7        6        7        0     1669     1668     2669
     2320        7        6        7        0     1670     1669     2671
     2321        7        6        7        0     1671     1670     2673
     2322        7        6        7        0     1672     1671     2675
     2323        7        6        7        0     1673     1672     2677
     2324        7        6        7        0     1674     1673     2679
     2325        7        6        7        0     1675     1674     2681
! ... 61 like lines cut
keyo,cid,10,0              ! adjust contact stiffness each NR iteration (from Program Controlled setting)
keyo,cid,12,0              ! standard contact
keyo,cid,2,0               ! augmented Lagrange (from Program Controlled setting)
keyo,cid,4,0               ! on Gauss point (from Program Controlled setting)
keyo,cid,9,0               ! use real geometry with stepped effects
keyo,cid,7,0               ! No Prediction
rmod,cid,3,1.       ! FKN
rmod,cid,5,0.       ! ICONT
rmod,cid,6,1.       ! PINB
rmod,cid,10,0.      ! CNOF
rmod,cid,12,0.      ! FKT
rmod,cid,36,34      ! WB DSID
nsel,all
esel,all
/wb,contact,end            !  done creating contacts
/golist
/wb,load,start             !  starting to send loads
/com,*********** Fixed Supports ***********
CMBLOCK,_FIXEDSU,NODE,      161
(8i10)
      1555      1566      1567      1568      1569      1570      1571      1572
      1573      1574      1575      1576      1577      1578      1579      1580
      1581      1582      1583      1584      1585      1586      1587      1588
      1589      1590      1591      1592      1593      1594      1595      1596
      1597      1598      1599      1600      1601      1602      1603      1604
      1605      1606      1607      1608      1609      1610      1611      1612
      1613      1614      1615      1616      1617      1618      1619      1620
      1621      1622      1623      1624      1625      1626      1627      1628
      1629      1630      1631      1632      1633      1634      1635      1636
      1637      1638      1639      1640      1641      1642      1643      1644
      1645      2447      2467      2469      2471      2473      2475      2477
      2479      2481      2483      2485      2487      2489      2491      2493
      2495      2497      2499      2501      2503      2505      2507      2509
      2511      2513      2515      2517      2519      2521      2523      2525
      2527      2529      2531      2533      2535      2537      2539      2541
      2543      2545      2547      2549      2551      2553      2555      2557
      2559      2561      2563      2565      2567      2569      2571      2573
      2575      2577      2579      2581      2583      2585      2587      2589
      2591      2593      2595      2597      2599      2601      2603      2605
      2607      2609      2611      2613      2615      2617      2619      2621
      2623
cmsel,s,_FIXEDSU
d,all,all
nsel,all
/com,********* Frictionless Supports X *********
CMBLOCK,_FRICSUX,NODE,       56
(8i10)
        87        96        97        98        99       100       101       102
       721       737       739       741       743       745       747      1646
      1647      1648      1649      1650      1651      1652      1653      1654
      1655      2468      2626      2628      2630      2632      2634      2636
      2638      2640      2642      4136      4137      4138      4139      4140
      4141      4142      4143      4144      4145      4146      5027      5029
      5031      5033      5035      5037      5039      5041      5043      5045

cmsel,s,_FRICSUX
d,all,ux,0
nsel,all
/gst,on,on
fini
*get,_numnode,node,0,count
*get,_numelem,elem,0,count
*get, _MAXELEMNUM, elem, 0, NUM, MAX
*get, _MAXNODENUM, node, 0, NUM, MAX
*get, _MAXELEMTYPE, etyp, 0, NUM, MAX
*get, _MAXREALCONST, real, 0, NUM, MAX
/go
/wb,load,end               !  done creating loads
/com,--- Number of total nodes = %_numnode%
/com,--- Number of contact elements = 322
/com,--- Number of spring elements = 0
/com,--- Number of bearing elements = 0
/com,--- Number of solid elements = 2063
/com,--- Number of condensed parts = 0
/com,--- Number of total elements = %_numelem%
*get,_wallbsol,active,,time,wall
/com,****************************************************************************
/com,*************************    SOLUTION       ********************************
/com,****************************************************************************
/solu
antype,0                   ! static analysis
nlgeom,on                  ! Turn on Large Deformation Effects
_thickRatio=  0     ! Ratio of thick parts in the model
eqsl,sparse,,,,,1
cntr,print,1               ! print out contact info and also make no initial contact an error
dmpoption,emat,no             ! Don't combine emat file for DANSYS
dmpoption,esav,no             ! Don't combine esav file for DANSYS
nldiag,cont,iter           ! print out contact info each equilibrium iteration
rescontrol,define,last,last,,dele	   ! Program Controlled
/com,****************************************************
/com,******************* SOLVE FOR LS 1 OF 1 ****************
/com,*** Set Displacements ***
CMBLOCK,_CM45UY_YP,NODE,      161
(8i10)
      4136      4147      4148      4149      4150      4151      4152      4153
      4154      4155      4156      4157      4158      4159      4160      4161
      4162      4163      4164      4165      4166      4167      4168      4169
      4170      4171      4172      4173      4174      4175      4176      4177
      4178      4179      4180      4181      4182      4183      4184      4185
      4186      4187      4188      4189      4190      4191      4192      4193
      4194      4195      4196      4197      4198      4199      4200      4201
      4202      4203      4204      4205      4206      4207      4208      4209
      4210      4211      4212      4213      4214      4215      4216      4217
      4218      4219      4220      4221      4222      4223      4224      4225
      4226      5028      5048      5050      5052      5054      5056      5058
      5060      5062      5064      5066      5068      5070      5072      5074
      5076      5078      5080      5082      5084      5086      5088      5090
      5092      5094      5096      5098      5100      5102      5104      5106
      5108      5110      5112      5114      5116      5118      5120      5122
      5124      5126      5128      5130      5132      5134      5136      5138
      5140      5142      5144      5146      5148      5150      5152      5154
      5156      5158      5160      5162      5164      5166      5168      5170
      5172      5174      5176      5178      5180      5182      5184      5186
      5188      5190      5192      5194      5196      5198      5200      5202
      5204
cmsel,s,_CM45UY_YP
d,all,uy,-0.85
nsel,all

/com,*** Component For All Non-Zero UY Displacements ***
cmsel,s,_CM45uy_yp
cm,_DISPNONZEROUY,NODE
nsel,all

/nopr
/gopr
/nolist
autots,on                  ! Workbench Program Controlled automatic time stepping
nsub,5,1000,1              ! due to presence of nonlinear materials
time,1.
outres,erase
outres,all,none
outres,nsol,all,
outres,rsol,all
outres,eangl,all
outres,etmp,all
outres,veng,all
outres,strs,all,
outres,epel,all,
outres,eppl,all,
outres,cont,all,
! *********** WB SOLVE COMMAND ***********
! check interactive state
*get,ANSINTER_,active,,int
*if,ANSINTER_,ne,0,then
/eof
*endif
solve
/com *************** Write FE CONNECTORS ********* 
CEWRITE,file,ce,,INTE
/com,****************************************************
/com,*************** FINISHED SOLVE FOR LS 1 *************
*get,_wallasol,active,,time,wall
/nopr
*get,_numnode,node,0,count
*get,_numelem,elem,0,count
*get, _MAXELEMNUM, elem, 0, NUM, MAX
*get, _MAXNODENUM, node, 0, NUM, MAX,,,INTERNAL
*get, _MAXELEMTYPE, etyp, 0, NUM, MAX
*get, _MAXREALCONST, real, 0, NUM, MAX
/gopr
/post1
xmlo,ENCODING,ISO-8859-1
xmlo,parm
/xml,parm,xml
fini
/gopr
*get,_walldone,active,,time,wall
_preptime=(_wallbsol-_wallstrt)*3600
_solvtime=(_wallasol-_wallbsol)*3600
_posttime=(_walldone-_wallasol)*3600
_totaltim=(_walldone-_wallstrt)*3600
*get,_dlbratio,active,0,solu,dlbr
*get,_combtime,active,0,solu,comb
/com,--- Total number of nodes = %_numnode%
/com,--- Total number of elements = %_numelem%
/com,--- Element load balance ratio = %_dlbratio%
/com,--- Time to combine distributed files = %_combtime%
/wb,file,end               ! done with WB generated input
