/batch
/config,noeldb,1     ! force off writing results to database
*get,_wallstrt,active,,time,wall
! ANSYS input file written by Workbench version 2021 R1
! File used for geometry attach: C:\Users\ASUS\Documents\ANSYS\ANSYS2021\Sec07-3\Building_files\dp0\SYS\DM\SYS.agdb
/title,Building--Static Structural (A5)
! ****** Begin Custom Load Command Snippet ******
/COM, ACT Extensions:
/COM,     LSDYNA, 2021.1
/COM,     5f463412-bd3e-484b-87e7-cbc0a665e474, wbex
/COM,
! ****** End   Custom Load Command Snippet ******
*DIM,_wb_ProjectScratch_dir,string,248
_wb_ProjectScratch_dir(1) = 'C:\Users\ASUS\Documents\ANSYS\ANSYS2021\Sec07-3\_ProjectScratch\Scr88F6\'
*DIM,_wb_SolverFiles_dir,string,248
_wb_SolverFiles_dir(1) = 'C:\Users\ASUS\Documents\ANSYS\ANSYS2021\Sec07-3\Building_files\dp0\SYS\MECH\'
*DIM,_wb_userfiles_dir,string,248
_wb_userfiles_dir(1) = 'C:\Users\ASUS\Documents\ANSYS\ANSYS2021\Sec07-3\Building_files\user_files\'
/com,--- Data in consistent BFT units. See Solving Units in the help system for more information.
/units,BFT
/nopr
/wb,file,start              !  signify a WB generated input file
/prep7
! Turn off shape checking because checks already performed inside WB mesher.
! See help system for more information.
SHPP,OFF,,NOWARN
/nolist
etcon,set             ! allow ANSYS to choose best KEYOP's for 180x elements, resets any applicable keyopt to MAPDL defaults
/com,*********** Nodes for the whole assembly ***********
nblock,3,,803
(1i9,3e20.9e3)
        1     4.000000000E+01     2.000000000E+01     0.000000000E+00
        2     6.000000000E+01     2.000000000E+01     0.000000000E+00
        3     4.250000000E+01     2.000000000E+01     0.000000000E+00
        4     4.500000000E+01     2.000000000E+01     0.000000000E+00
        5     4.750000000E+01     2.000000000E+01     0.000000000E+00
        6     5.000000000E+01     2.000000000E+01     0.000000000E+00
        7     5.250000000E+01     2.000000000E+01     0.000000000E+00
        8     5.500000000E+01     2.000000000E+01     0.000000000E+00
        9     5.750000000E+01     2.000000000E+01     0.000000000E+00
       10     2.000000000E+01     2.000000000E+01     0.000000000E+00
       11     2.250000000E+01     2.000000000E+01     0.000000000E+00
       12     2.500000000E+01     2.000000000E+01     0.000000000E+00
       13     2.750000000E+01     2.000000000E+01     0.000000000E+00
       14     3.000000000E+01     2.000000000E+01     0.000000000E+00
       15     3.250000000E+01     2.000000000E+01     0.000000000E+00
       16     3.500000000E+01     2.000000000E+01     0.000000000E+00
       17     3.750000000E+01     2.000000000E+01     0.000000000E+00
       18     0.000000000E+00     2.000000000E+01     0.000000000E+00
       19     2.500000000E+00     2.000000000E+01     0.000000000E+00
       20     5.000000000E+00     2.000000000E+01     0.000000000E+00
! ... 711 like lines cut
/wb,elem,start            !  set before creation of elements
/com,*********** Elements for Body 1 "Line Body" ***********
et,1,188
keyo,1,3,2
eblock,19,solid,,224
(19i9)
        1        1        1        1        0        0        0        0        3        0      385      127      129      507
        1        1        1        1        0        0        0        0        3        0      386      129      130      508
        1        1        1        1        0        0        0        0        3        0      387      130      131      509
        1        1        1        1        0        0        0        0        3        0      388      131      128      510
        1        1        1        1        0        0        0        0        3        0      389      111      192      511
        1        1        1        1        0        0        0        0        3        0      390      192      193      512
        1        1        1        1        0        0        0        0        3        0      391      193      194      513
        1        1        1        1        0        0        0        0        3        0      392      194      195      514
        1        1        1        1        0        0        0        0        3        0      393      195      196      515
        1        1        1        1        0        0        0        0        3        0      394      196      197      516
        1        1        1        1        0        0        0        0        3        0      395      197      198      517
        1        1        1        1        0        0        0        0        3        0      396      198      103      518
        1        1        1        1        0        0        0        0        3        0      397       87      164      519
        1        1        1        1        0        0        0        0        3        0      398      164      165      520
        1        1        1        1        0        0        0        0        3        0      399      165      166      521
        1        1        1        1        0        0        0        0        3        0      400      166      167      522
        1        1        1        1        0        0        0        0        3        0      401      167      168      523
        1        1        1        1        0        0        0        0        3        0      402      168      169      524
        1        1        1        1        0        0        0        0        3        0      403      169      170      525
        1        1        1        1        0        0        0        0        3        0      404      170      119      526
! ... 205 like lines cut
!Material Id = {29163410-4355-4F7D-86CF-9B0F190529A4}
/com,*********** Elements for Body 2 "Surface Body" ***********
et,2,181
keyo,2,3,2
eblock,19,solid,,64
(19i9)
        2        2        2        2        0        0        0        0        4        0        1      459      462      458      506
        2        2        2        2        0        0        0        0        4        0        2      506      460      463      459
        2        2        2        2        0        0        0        0        4        0        3      458      461      500      506
        2        2        2        2        0        0        0        0        4        0        4      500      464      460      506
        2        2        2        2        0        0        0        0        4        0        5      458      465      503      461
        2        2        2        2        0        0        0        0        4        0        6      462      466      465      458
        2        2        2        2        0        0        0        0        4        0        7      459      499      502      462
        2        2        2        2        0        0        0        0        4        0        8      463      504      499      459
        2        2        2        2        0        0        0        0        4        0        9      460      469      467      463
        2        2        2        2        0        0        0        0        4        0       10      464      505      469      460
        2        2        2        2        0        0        0        0        4        0       11      461      470      501      500
        2        2        2        2        0        0        0        0        4        0       12      501      468      464      500
        2        2        2        2        0        0        0        0        4        0       13      503      471      470      461
        2        2        2        2        0        0        0        0        4        0       14      502      472      466      462
        2        2        2        2        0        0        0        0        4        0       15      467      473      504      463
        2        2        2        2        0        0        0        0        4        0       16      468      474      505      464
        2        2        2        2        0        0        0        0        4        0       17      465      477      476      503
        2        2        2        2        0        0        0        0        4        0       18      503      476      475      471
        2        2        2        2        0        0        0        0        4        0       19      499      483      482      502
        2        2        2        2        0        0        0        0        4        0       20      502      482      481      472
! ... 45 like lines cut
!Material Id = {E43B9FCE-838F-497A-AE2C-359F75343DE9}
/com,*********** Elements for Body 3 "Surface Body" ***********
et,3,181
keyo,3,3,2
eblock,19,solid,,64
(19i9)
        3        3        3        3        0        0        0        0        4        0       65      453      413      409      457
        3        3        3        3        0        0        0        0        4        0       66      457      410      414      453
        3        3        3        3        0        0        0        0        4        0       67      409      412      411      457
        3        3        3        3        0        0        0        0        4        0       68      411      415      410      457
        3        3        3        3        0        0        0        0        4        0       69      409      451      416      412
        3        3        3        3        0        0        0        0        4        0       70      413      454      451      409
        3        3        3        3        0        0        0        0        4        0       71      453      418      417      413
        3        3        3        3        0        0        0        0        4        0       72      414      419      418      453
        3        3        3        3        0        0        0        0        4        0       73      410      421      456      414
        3        3        3        3        0        0        0        0        4        0       74      415      422      421      410
        3        3        3        3        0        0        0        0        4        0       75      412      455      452      411
        3        3        3        3        0        0        0        0        4        0       76      452      420      415      411
        3        3        3        3        0        0        0        0        4        0       77      416      423      455      412
        3        3        3        3        0        0        0        0        4        0       78      417      424      454      413
        3        3        3        3        0        0        0        0        4        0       79      456      425      419      414
        3        3        3        3        0        0        0        0        4        0       80      420      426      422      415
        3        3        3        3        0        0        0        0        4        0       81      451      429      428      416
        3        3        3        3        0        0        0        0        4        0       82      416      428      427      423
        3        3        3        3        0        0        0        0        4        0       83      418      435      434      417
        3        3        3        3        0        0        0        0        4        0       84      417      434      433      424
! ... 45 like lines cut
!Material Id = {ABC4B5E2-9E69-4303-B054-3B2BC98E9C07}
/com,*********** Elements for Body 4 "Surface Body" ***********
et,4,181
keyo,4,3,2
eblock,19,solid,,64
(19i9)
        4        4        4        4        0        0        0        0        4        0      129      360      363      399      408
        4        4        4        4        0        0        0        0        4        0      130      408      400      364      360
        4        4        4        4        0        0        0        0        4        0      131      399      362      361      408
        4        4        4        4        0        0        0        0        4        0      132      361      365      400      408
        4        4        4        4        0        0        0        0        4        0      133      399      403      366      362
        4        4        4        4        0        0        0        0        4        0      134      363      367      403      399
        4        4        4        4        0        0        0        0        4        0      135      360      397      405      363
        4        4        4        4        0        0        0        0        4        0      136      364      407      397      360
        4        4        4        4        0        0        0        0        4        0      137      400      402      368      364
        4        4        4        4        0        0        0        0        4        0      138      365      369      402      400
        4        4        4        4        0        0        0        0        4        0      139      362      404      398      361
        4        4        4        4        0        0        0        0        4        0      140      398      406      365      361
        4        4        4        4        0        0        0        0        4        0      141      366      370      404      362
        4        4        4        4        0        0        0        0        4        0      142      405      401      367      363
        4        4        4        4        0        0        0        0        4        0      143      368      371      407      364
        4        4        4        4        0        0        0        0        4        0      144      406      372      369      365
        4        4        4        4        0        0        0        0        4        0      145      403      375      374      366
        4        4        4        4        0        0        0        0        4        0      146      366      374      373      370
        4        4        4        4        0        0        0        0        4        0      147      397      381      380      405
        4        4        4        4        0        0        0        0        4        0      148      405      380      379      401
! ... 45 like lines cut
!Material Id = {DCAFFF52-4D2D-4A88-A783-8002C2A16737}
/com,*********** Elements for Body 5 "Surface Body" ***********
et,5,181
keyo,5,3,2
eblock,19,solid,,64
(19i9)
        5        5        5        5        0        0        0        0        4        0      193      355      314      311      359
        5        5        5        5        0        0        0        0        4        0      194      359      312      315      355
        5        5        5        5        0        0        0        0        4        0      195      311      313      356      359
        5        5        5        5        0        0        0        0        4        0      196      356      316      312      359
        5        5        5        5        0        0        0        0        4        0      197      311      319      317      313
        5        5        5        5        0        0        0        0        4        0      198      314      320      319      311
        5        5        5        5        0        0        0        0        4        0      199      355      321      318      314
        5        5        5        5        0        0        0        0        4        0      200      315      322      321      355
        5        5        5        5        0        0        0        0        4        0      201      312      354      357      315
        5        5        5        5        0        0        0        0        4        0      202      316      358      354      312
        5        5        5        5        0        0        0        0        4        0      203      313      325      324      356
        5        5        5        5        0        0        0        0        4        0      204      324      323      316      356
        5        5        5        5        0        0        0        0        4        0      205      317      326      325      313
        5        5        5        5        0        0        0        0        4        0      206      318      327      320      314
        5        5        5        5        0        0        0        0        4        0      207      357      328      322      315
        5        5        5        5        0        0        0        0        4        0      208      323      329      358      316
        5        5        5        5        0        0        0        0        4        0      209      319      332      331      317
        5        5        5        5        0        0        0        0        4        0      210      317      331      330      326
        5        5        5        5        0        0        0        0        4        0      211      321      338      337      318
        5        5        5        5        0        0        0        0        4        0      212      318      337      336      327
! ... 45 like lines cut
!Material Id = {7D3DA226-729D-4AF6-86B5-7F6DC6F56787}
/com,*********** Elements for Body 6 "Surface Body" ***********
et,6,181
keyo,6,3,2
eblock,19,solid,,64
(19i9)
        6        6        6        6        0        0        0        0        4        0      257      263      266      262      310
        6        6        6        6        0        0        0        0        4        0      258      310      264      267      263
        6        6        6        6        0        0        0        0        4        0      259      262      265      304      310
        6        6        6        6        0        0        0        0        4        0      260      304      268      264      310
        6        6        6        6        0        0        0        0        4        0      261      262      305      269      265
        6        6        6        6        0        0        0        0        4        0      262      266      270      305      262
        6        6        6        6        0        0        0        0        4        0      263      263      271      306      266
        6        6        6        6        0        0        0        0        4        0      264      267      272      271      263
        6        6        6        6        0        0        0        0        4        0      265      264      303      308      267
        6        6        6        6        0        0        0        0        4        0      266      268      309      303      264
        6        6        6        6        0        0        0        0        4        0      267      265      307      274      304
        6        6        6        6        0        0        0        0        4        0      268      274      273      268      304
        6        6        6        6        0        0        0        0        4        0      269      269      275      307      265
        6        6        6        6        0        0        0        0        4        0      270      306      276      270      266
        6        6        6        6        0        0        0        0        4        0      271      308      277      272      267
        6        6        6        6        0        0        0        0        4        0      272      273      278      309      268
        6        6        6        6        0        0        0        0        4        0      273      305      281      280      269
        6        6        6        6        0        0        0        0        4        0      274      269      280      279      275
        6        6        6        6        0        0        0        0        4        0      275      271      287      286      306
        6        6        6        6        0        0        0        0        4        0      276      306      286      285      276
! ... 45 like lines cut
!Material Id = {F3678F57-0CAA-4D33-B659-B91B376025FA}
/com,*********** Elements for Body 7 "Surface Body" ***********
et,7,181
keyo,7,3,2
eblock,19,solid,,64
(19i9)
        7        7        7        7        0        0        0        0        4        0      321      214      218      213      261
        7        7        7        7        0        0        0        0        4        0      322      261      215      219      214
        7        7        7        7        0        0        0        0        4        0      323      213      217      216      261
        7        7        7        7        0        0        0        0        4        0      324      216      220      215      261
        7        7        7        7        0        0        0        0        4        0      325      213      253      221      217
        7        7        7        7        0        0        0        0        4        0      326      218      260      253      213
        7        7        7        7        0        0        0        0        4        0      327      214      257      222      218
        7        7        7        7        0        0        0        0        4        0      328      219      223      257      214
        7        7        7        7        0        0        0        0        4        0      329      215      255      259      219
        7        7        7        7        0        0        0        0        4        0      330      220      258      255      215
        7        7        7        7        0        0        0        0        4        0      331      217      225      256      216
        7        7        7        7        0        0        0        0        4        0      332      256      224      220      216
        7        7        7        7        0        0        0        0        4        0      333      221      226      225      217
        7        7        7        7        0        0        0        0        4        0      334      222      227      260      218
        7        7        7        7        0        0        0        0        4        0      335      259      228      223      219
        7        7        7        7        0        0        0        0        4        0      336      224      229      258      220
        7        7        7        7        0        0        0        0        4        0      337      253      231      254      221
        7        7        7        7        0        0        0        0        4        0      338      221      254      230      226
        7        7        7        7        0        0        0        0        4        0      339      257      237      236      222
        7        7        7        7        0        0        0        0        4        0      340      222      236      235      227
! ... 45 like lines cut
!Material Id = {F786D25D-0DA4-4202-8AD2-1988D0040CA6}
/wb,elem,end               !  done creating elements
/com,*********** Send User Defined Coordinate System(s) ***********
csys,0
toffst,459.67,  ! Temperature offset from absolute zero
/com,*********** Set Reference Temperature ***********
tref,71.6
/wb,mat,start              !  starting to send materials
/com,*********** Send Materials ***********
Temperature = 'TEMP' ! Temperature
MP,DENS,1,15.2315146043509,	! slug ft^-3
MP,ALPX,1,6.66666666666667e-06,	! F^-1
MP,C,1,2595.29840047335,	! ft^2 s^-2 F^-1
MP,KXX,1,7.55607836445752,	! slug ft s^-3 F^-1
MP,RSVX,1,102.281879194631,	! ohm cmil ft^-1
MP,EX,1,4177086846.1666,	! slug s^-2 ft^-1
MP,NUXY,1,0.3,
MP,MURX,1,10000,

Temperature = 'TEMP' ! Temperature
MP,DENS,2,4.46273676305823,	! slug ft^-3
MP,ALPX,2,7.77777777777778e-06,	! F^-1
MP,C,2,4664.36118057422,	! ft^2 s^-2 F^-1
MP,KXX,2,0.0899235772299077,	! slug ft s^-3 F^-1
MP,EX,2,626563026.92499,	! slug s^-2 ft^-1
MP,NUXY,2,0.18,

Temperature = 'TEMP' ! Temperature
MP,DENS,3,4.46273676305823,	! slug ft^-3
MP,ALPX,3,7.77777777777778e-06,	! F^-1
MP,C,3,4664.36118057422,	! ft^2 s^-2 F^-1
MP,KXX,3,0.0899235772299077,	! slug ft s^-3 F^-1
MP,EX,3,626563026.92499,	! slug s^-2 ft^-1
MP,NUXY,3,0.18,

Temperature = 'TEMP' ! Temperature
MP,DENS,4,4.46273676305823,	! slug ft^-3
MP,ALPX,4,7.77777777777778e-06,	! F^-1
MP,C,4,4664.36118057422,	! ft^2 s^-2 F^-1
MP,KXX,4,0.0899235772299077,	! slug ft s^-3 F^-1
MP,EX,4,626563026.92499,	! slug s^-2 ft^-1
MP,NUXY,4,0.18,

Temperature = 'TEMP' ! Temperature
MP,DENS,5,4.46273676305823,	! slug ft^-3
MP,ALPX,5,7.77777777777778e-06,	! F^-1
MP,C,5,4664.36118057422,	! ft^2 s^-2 F^-1
MP,KXX,5,0.0899235772299077,	! slug ft s^-3 F^-1
MP,EX,5,626563026.92499,	! slug s^-2 ft^-1
MP,NUXY,5,0.18,

Temperature = 'TEMP' ! Temperature
MP,DENS,6,4.46273676305823,	! slug ft^-3
MP,ALPX,6,7.77777777777778e-06,	! F^-1
MP,C,6,4664.36118057422,	! ft^2 s^-2 F^-1
MP,KXX,6,0.0899235772299077,	! slug ft s^-3 F^-1
MP,EX,6,626563026.92499,	! slug s^-2 ft^-1
MP,NUXY,6,0.18,

Temperature = 'TEMP' ! Temperature
MP,DENS,7,4.46273676305823,	! slug ft^-3
MP,ALPX,7,7.77777777777778e-06,	! F^-1
MP,C,7,4664.36118057422,	! ft^2 s^-2 F^-1
MP,KXX,7,0.0899235772299077,	! slug ft s^-3 F^-1
MP,EX,7,626563026.92499,	! slug s^-2 ft^-1
MP,NUXY,7,0.18,

/wb,mat,end                !  done sending materials
/com,*********** Send Sheet Properties ***********
sectype,2,shell
secdata,0.416666666666667
secoff,mid

sectype,3,shell
secdata,0.416666666666667
secoff,mid

sectype,4,shell
secdata,0.416666666666667
secoff,mid

sectype,5,shell
secdata,0.416666666666667
secoff,mid

sectype,6,shell
secdata,0.416666666666667
secoff,mid

sectype,7,shell
secdata,0.416666666666667
secoff,mid

/com,*********** Send Beam Properties ***********
SECTYPE,1,BEAM,I
SECDATA,0.589166666666667,0.589166666666667,1.35416666666667,5.25e-002,5.25e-002,3.16666666666667e-002
secoffset,cent

!************************* Model Summary ********************
!Line Body,	Structural Steel,	matid,	1
!Surface Body,	Concrete,	matid,	2
!Surface Body,	Concrete,	matid,	3
!Surface Body,	Concrete,	matid,	4
!Surface Body,	Concrete,	matid,	5
!Surface Body,	Concrete,	matid,	6
!Surface Body,	Concrete,	matid,	7
!************************* End Model Summary ********************
! get the diagonal of the bounding box. Needed later for other things
*get,_xmin,node,,mnloc,x
*get,_ymin,node,,mnloc,y
*get,_zmin,node,,mnloc,z
*get,_xmax,node,,mxloc,x
*get,_ymax,node,,mxloc,y
*get,_zmax,node,,mxloc,z
_ASMDIAG=(_xmax-_xmin)*(_xmax-_xmin)+(_ymax-_ymin)*(_ymax-_ymin)+(_zmax-_zmin)*(_zmax-_zmin)
_ASMDIAG=SQRT(_ASMDIAG)
/wb,contact,start          !  starting to send contact
/wb,contact,end            !  done creating contacts
/golist
/wb,load,start             !  starting to send loads
/com,*********** Fixed Supports ***********
CMBLOCK,_FIXEDSU,NODE,        8
(8i10)
        80        88        96       104       112       120       128       136

cmsel,s,_FIXEDSU
d,all,all
nsel,all
/com,*********** Define Pressure Using Surface Effect Elements ***********
et,8,154
eblock,10,,,384
(15i9)
      609        8        8        8        0      459      462      458      506
      610        8        8        8        0      506      460      463      459
      611        8        8        8        0      458      461      500      506
      612        8        8        8        0      500      464      460      506
      613        8        8        8        0      458      465      503      461
      614        8        8        8        0      462      466      465      458
      615        8        8        8        0      459      499      502      462
      616        8        8        8        0      463      504      499      459
      617        8        8        8        0      460      469      467      463
      618        8        8        8        0      464      505      469      460
      619        8        8        8        0      461      470      501      500
      620        8        8        8        0      501      468      464      500
      621        8        8        8        0      503      471      470      461
      622        8        8        8        0      502      472      466      462
      623        8        8        8        0      467      473      504      463
      624        8        8        8        0      468      474      505      464
      625        8        8        8        0      465      477      476      503
      626        8        8        8        0      503      476      475      471
      627        8        8        8        0      499      483      482      502
      628        8        8        8        0      502      482      481      472
! ... 365 like lines cut
esel,s,type,,8
keyop,8,7,0                ! Use deformed area for application of load
esel,all
esel,all
/gst,on,on
fini
*get,_numnode,node,0,count
*get,_numelem,elem,0,count
*get, _MAXELEMNUM, elem, 0, NUM, MAX
*get, _MAXNODENUM, node, 0, NUM, MAX
*get, _MAXELEMTYPE, etyp, 0, NUM, MAX
*get, _MAXREALCONST, real, 0, NUM, MAX
/go
/wb,load,end               !  done creating loads
/com,--- Number of total nodes = %_numnode%
/com,--- Number of contact elements = 384
/com,--- Number of spring elements = 0
/com,--- Number of bearing elements = 0
/com,--- Number of solid elements = 608
/com,--- Number of condensed parts = 0
/com,--- Number of total elements = %_numelem%
*get,_wallbsol,active,,time,wall
/com,****************************************************************************
/com,*************************    SOLUTION       ********************************
/com,****************************************************************************
/solu
antype,0                   ! static analysis
_thickRatio=  0     ! Ratio of thick parts in the model
eqsl,sparse,,,,,1
cntr,print,1               ! print out contact info and also make no initial contact an error
dmpoption,emat,no             ! Don't combine emat file for DANSYS
dmpoption,esav,no             ! Don't combine esav file for DANSYS
nldiag,cont,iter           ! print out contact info each equilibrium iteration
rescontrol,,none                 ! Do not keep any restart files
/com,****************************************************
/com,******************* SOLVE FOR LS 1 OF 1 ****************
esel,s,type,,8
nsle
sf,all,pres,50.0000000149875
nsel,all
esel,all
acel,0.,32.1740485564304,6.4
esel,all
/nopr
/gopr
/nolist
nsub,1,1,1
time,1.
outres,erase
outres,all,none
outres,nsol,all,
outres,rsol,all
outres,eangl,all
outres,etmp,all
outres,veng,all
outres,strs,all,
outres,epel,all,
outres,eppl,all,
outres,cont,all,
/nopr
esel,s,type,,1
cm,_elmisc,elem
esel,all
/gopr
outres,misc,all,_elmisc
! *********** WB SOLVE COMMAND ***********
! check interactive state
*get,ANSINTER_,active,,int
*if,ANSINTER_,ne,0,then
/eof
*endif
solve
/com *************** Write FE CONNECTORS ********* 
CEWRITE,file,ce,,INTE
/com,****************************************************
/com,*************** FINISHED SOLVE FOR LS 1 *************
*get,_wallasol,active,,time,wall
/nopr
*get,_numnode,node,0,count
*get,_numelem,elem,0,count
*get, _MAXELEMNUM, elem, 0, NUM, MAX
*get, _MAXNODENUM, node, 0, NUM, MAX,,,INTERNAL
*get, _MAXELEMTYPE, etyp, 0, NUM, MAX
*get, _MAXREALCONST, real, 0, NUM, MAX
/gopr
/post1
xmlo,ENCODING,ISO-8859-1
xmlo,parm
/xml,parm,xml
fini
/gopr
*get,_walldone,active,,time,wall
_preptime=(_wallbsol-_wallstrt)*3600
_solvtime=(_wallasol-_wallbsol)*3600
_posttime=(_walldone-_wallasol)*3600
_totaltim=(_walldone-_wallstrt)*3600
*get,_dlbratio,active,0,solu,dlbr
*get,_combtime,active,0,solu,comb
/com,--- Total number of nodes = %_numnode%
/com,--- Total number of elements = %_numelem%
/com,--- Element load balance ratio = %_dlbratio%
/com,--- Time to combine distributed files = %_combtime%
/wb,file,end               ! done with WB generated input
