/batch
/config,noeldb,1     ! force off writing results to database
*get,_wallstrt,active,,time,wall
! ANSYS input file written by Workbench version 2021 R1
! File used for geometry attach: C:\Users\ASUS\Documents\ANSYS\ANSYS2021\Sec12-2\Fork_files\dp0\SYS\DM\SYS.agdb
/title,Fork--Static Structural (A5)
! ****** Begin Custom Load Command Snippet ******
/COM, ACT Extensions:
/COM,     LSDYNA, 2021.1
/COM,     5f463412-bd3e-484b-87e7-cbc0a665e474, wbex
/COM,
! ****** End   Custom Load Command Snippet ******
*DIM,_wb_ProjectScratch_dir,string,248
_wb_ProjectScratch_dir(1) = 'C:\Users\ASUS\Documents\ANSYS\ANSYS2021\Sec12-2\_ProjectScratch\Scr0EC7\'
*DIM,_wb_SolverFiles_dir,string,248
_wb_SolverFiles_dir(1) = 'C:\Users\ASUS\Documents\ANSYS\ANSYS2021\Sec12-2\Fork_files\dp0\SYS\MECH\'
*DIM,_wb_userfiles_dir,string,248
_wb_userfiles_dir(1) = 'C:\Users\ASUS\Documents\ANSYS\ANSYS2021\Sec12-2\Fork_files\user_files\'
/com,--- Data in consistent NMM units. See Solving Units in the help system for more information.
/units,MPA
/nopr
/wb,file,start              !  signify a WB generated input file
/prep7
! Turn off shape checking because checks already performed inside WB mesher.
! See help system for more information.
SHPP,OFF,,NOWARN
/nolist
etcon,set             ! allow ANSYS to choose best KEYOP's for 180x elements, resets any applicable keyopt to MAPDL defaults
/com,*********** Nodes for the whole assembly ***********
nblock,3,,7716
(1i9,3e20.9e3)
        1    -1.100000000E+03     0.000000000E+00     4.000000000E+02
        2     1.100000000E+03     0.000000000E+00     4.000000000E+02
        3    -1.100000000E+03     0.000000000E+00     2.900000000E+03
        4     1.100000000E+03     0.000000000E+00     2.900000000E+03
        5    -1.040540541E+03     0.000000000E+00     2.840476190E+03
        6    -1.040540541E+03     0.000000000E+00     2.780952381E+03
        7    -1.040540541E+03     0.000000000E+00     2.721428571E+03
        8    -1.040540541E+03     0.000000000E+00     2.661904762E+03
        9    -1.040540541E+03     0.000000000E+00     2.602380952E+03
       10    -1.040540541E+03     0.000000000E+00     2.542857143E+03
       11    -1.040540541E+03     0.000000000E+00     2.483333333E+03
       12    -1.040540541E+03     0.000000000E+00     2.423809524E+03
       13    -1.040540541E+03     0.000000000E+00     2.364285714E+03
       14    -1.040540541E+03     0.000000000E+00     2.304761905E+03
       15    -1.040540541E+03     0.000000000E+00     2.245238095E+03
       16    -1.040540541E+03     0.000000000E+00     2.185714286E+03
       17    -1.040540541E+03     0.000000000E+00     2.126190476E+03
       18    -1.040540541E+03     0.000000000E+00     2.066666667E+03
       19    -1.040540541E+03     0.000000000E+00     2.007142857E+03
       20    -1.040540541E+03     0.000000000E+00     1.947619048E+03
! ... 6996 like lines cut
/wb,elem,start            !  set before creation of elements
/com,*********** Elements for Body 1 "Fork" ***********
et,1,186
keyo,1,2,1          ! set full integration on SOLID186
eblock,19,solid,,624
(19i9)
        1        1        1        1        0        0        0        0       20        0        1     3281     3287     3288     3282     1915     1919     1921     1917
     7013     7014     7015     7005     4657     4658     4659     4652     7008     3515     3951     7009
        1        1        1        1        0        0        0        0       20        0        2     3279     3285     3286     3280     3281     3287     3288     3282
     7010     7011     7012     7000     7013     7014     7015     7005     7004     3514     3950     7006
        1        1        1        1        0        0        0        0       20        0        3     3277     3283     3284     3278     3279     3285     3286     3280
     3510     3512     3948     6998     7010     7011     7012     7000     6999     3513     3949     7001
        1        1        1        1        0        0        0        0       20        0        4     3275     3281     3282     3276     1911     1915     1917     1913
     7003     7005     7007     6992     4651     4652     4653     4644     6995     7008     7009     6996
        1        1        1        1        0        0        0        0       20        0        5     3273     3279     3280     3274     3275     3281     3282     3276
     6997     7000     7002     6987     7003     7005     7007     6992     6991     7004     7006     6993
        1        1        1        1        0        0        0        0       20        0        6     3271     3277     3278     3272     3273     3279     3280     3274
     3509     6998     3947     6985     6997     7000     7002     6987     6986     6999     7001     6988
        1        1        1        1        0        0        0        0       20        0        7     3269     3275     3276     3270     1905     1911     1913     1909
     6990     6992     6994     6979     4643     4644     4645     4636     6982     6995     6996     6983
        1        1        1        1        0        0        0        0       20        0        8     3267     3273     3274     3268     3269     3275     3276     3270
     6984     6987     6989     6974     6990     6992     6994     6979     6978     6991     6993     6980
        1        1        1        1        0        0        0        0       20        0        9     3265     3271     3272     3266     3267     3273     3274     3268
     3508     6985     3946     6972     6984     6987     6989     6974     6973     6986     6988     6975
        1        1        1        1        0        0        0        0       20        0       10     3095     3269     3270     3096     1903     1905     1909     1907
     6977     6979     6981     6682     4635     4636     4637     3505     6684     6982     6983     3944
! ... 1229 like lines cut
!Material Id = {85EBDCD4-3314-4945-AEA2-FFBD9C36BC48}
/com,*********** Elements for Body 2 "Glass" ***********
et,2,181
keyo,2,3,2
eblock,19,solid,,1554
(19i9)
        2        2        2        2        0        0        0        0        4        0      625     1557        5     1558        3
        2        2        2        2        0        0        0        0        4        0      626     1556       46        5     1557
        2        2        2        2        0        0        0        0        4        0      627     1555       87       46     1556
        2        2        2        2        0        0        0        0        4        0      628     1554      128       87     1555
        2        2        2        2        0        0        0        0        4        0      629     1553      169      128     1554
        2        2        2        2        0        0        0        0        4        0      630     1552      210      169     1553
        2        2        2        2        0        0        0        0        4        0      631     1551      251      210     1552
        2        2        2        2        0        0        0        0        4        0      632     1550      292      251     1551
        2        2        2        2        0        0        0        0        4        0      633     1549      333      292     1550
        2        2        2        2        0        0        0        0        4        0      634     1548      374      333     1549
        2        2        2        2        0        0        0        0        4        0      635     1547      415      374     1548
        2        2        2        2        0        0        0        0        4        0      636     1546      456      415     1547
        2        2        2        2        0        0        0        0        4        0      637     1545      497      456     1546
        2        2        2        2        0        0        0        0        4        0      638     1544      538      497     1545
        2        2        2        2        0        0        0        0        4        0      639     1543      579      538     1544
        2        2        2        2        0        0        0        0        4        0      640     1542      620      579     1543
        2        2        2        2        0        0        0        0        4        0      641     1541      661      620     1542
        2        2        2        2        0        0        0        0        4        0      642     1540      702      661     1541
        2        2        2        2        0        0        0        0        4        0      643     1539      743      702     1540
        2        2        2        2        0        0        0        0        4        0      644     1538      784      743     1539
! ... 1535 like lines cut
!Material Id = {A0CC7F38-4919-4A82-B81B-764FCFEC280D}
/wb,elem,end               !  done creating elements
/com,*********** Send User Defined Coordinate System(s) ***********
csys,0
toffst,273.15,  ! Temperature offset from absolute zero
/com,*********** Set Reference Temperature ***********
tref,22.
/wb,mat,start              !  starting to send materials
/com,*********** Send Materials ***********
Temperature = 'TEMP' ! Temperature
MP,DENS,1,7.85e-09,	! tonne mm^-3
MP,ALPX,1,1.2e-05,	! C^-1
MP,C,1,434000000,	! mm^2 s^-2 C^-1
MP,KXX,1,60.5,	! tonne mm s^-3 C^-1
MP,RSVX,1,0.00017,	! ohm mm
MP,EX,1,200000,	! tonne s^-2 mm^-1
MP,NUXY,1,0.3,
MP,MURX,1,10000,

MP,DENS,2,2.37e-09,	! tonne mm^-3
MP,EX,2,70000,	! tonne s^-2 mm^-1
MP,NUXY,2,0.22,

/wb,mat,end                !  done sending materials
/com,*********** Send Sheet Properties ***********
sectype,2,shell
secdata,1.
secoff,mid

!************************* Model Summary ********************
!Fork,	Structural Steel,	matid,	1
!Glass,	Glass,	matid,	2
!************************* End Model Summary ********************
! get the diagonal of the bounding box. Needed later for other things
*get,_xmin,node,,mnloc,x
*get,_ymin,node,,mnloc,y
*get,_zmin,node,,mnloc,z
*get,_xmax,node,,mxloc,x
*get,_ymax,node,,mxloc,y
*get,_zmax,node,,mxloc,z
_ASMDIAG=(_xmax-_xmin)*(_xmax-_xmin)+(_ymax-_ymin)*(_ymax-_ymin)+(_zmax-_zmin)*(_zmax-_zmin)
_ASMDIAG=SQRT(_ASMDIAG)
/wb,contact,start          !  starting to send contact
/com,*********** Create Contact "Contact Region" ***********
/com,            Real Constant Set For Above Contact Is 4 & 3 
*set,tid,4
*set,cid,3
r,tid
r,cid
et,tid,170
et,cid,174
eblock,10,,,468
(15i9)
     3831        4        4        4        0     3065     3063     3071     3073     6631     6640     6645     3470
     3832        4        4        4        0     3063     3061     3069     3071     6627     6634     6641     6640
     3833        4        4        4        0     3061     3059     3067     3069     6622     3495     6636     6634
     3834        4        4        4        0     3057     3055     3063     3065     6617     6626     6631     3469
     3835        4        4        4        0     3055     3053     3061     3063     6613     6620     6627     6626
     3836        4        4        4        0     3053     3051     3059     3061     6608     3494     6622     6620
     3837        4        4        4        0     3049     3047     3055     3057     6603     6612     6617     3468
     3838        4        4        4        0     3047     3045     3053     3055     6599     6606     6613     6612
     3839        4        4        4        0     3045     3043     3051     3053     6594     3493     6608     6606
     3840        4        4        4        0     3041     3039     3047     3049     6589     6598     6603     3467
     3841        4        4        4        0     3039     3037     3045     3047     6585     6592     6599     6598
     3842        4        4        4        0     3037     3035     3043     3045     6580     3492     6594     6592
     3843        4        4        4        0     3033     3031     3039     3041     6575     6584     6589     3466
     3844        4        4        4        0     3031     3029     3037     3039     6571     6578     6585     6584
     3845        4        4        4        0     3029     3027     3035     3037     6566     3491     6580     6578
     3846        4        4        4        0     3025     3023     3031     3033     6561     6570     6575     3465
     3847        4        4        4        0     3023     3021     3029     3031     6557     6564     6571     6570
     3848        4        4        4        0     3021     3019     3027     3029     6552     3490     6566     6564
     3849        4        4        4        0     3017     3015     3023     3025     6547     6556     6561     3464
     3850        4        4        4        0     3015     3013     3021     3023     6543     6550     6557     6556
! ... 449 like lines cut
eblock,10,,,468
(15i9)
     4299        3        3        3        0     3065     3063     3071     3073     6631     6640     6645     3470
     4300        3        3        3        0     3063     3061     3069     3071     6627     6634     6641     6640
     4301        3        3        3        0     3061     3059     3067     3069     6622     3495     6636     6634
     4302        3        3        3        0     3057     3055     3063     3065     6617     6626     6631     3469
     4303        3        3        3        0     3055     3053     3061     3063     6613     6620     6627     6626
     4304        3        3        3        0     3053     3051     3059     3061     6608     3494     6622     6620
     4305        3        3        3        0     3049     3047     3055     3057     6603     6612     6617     3468
     4306        3        3        3        0     3047     3045     3053     3055     6599     6606     6613     6612
     4307        3        3        3        0     3045     3043     3051     3053     6594     3493     6608     6606
     4308        3        3        3        0     3041     3039     3047     3049     6589     6598     6603     3467
     4309        3        3        3        0     3039     3037     3045     3047     6585     6592     6599     6598
     4310        3        3        3        0     3037     3035     3043     3045     6580     3492     6594     6592
     4311        3        3        3        0     3033     3031     3039     3041     6575     6584     6589     3466
     4312        3        3        3        0     3031     3029     3037     3039     6571     6578     6585     6584
     4313        3        3        3        0     3029     3027     3035     3037     6566     3491     6580     6578
     4314        3        3        3        0     3025     3023     3031     3033     6561     6570     6575     3465
     4315        3        3        3        0     3023     3021     3029     3031     6557     6564     6571     6570
     4316        3        3        3        0     3021     3019     3027     3029     6552     3490     6566     6564
     4317        3        3        3        0     3017     3015     3023     3025     6547     6556     6561     3464
     4318        3        3        3        0     3015     3013     3021     3023     6543     6550     6557     6556
! ... 449 like lines cut
eblock,10,,,536
(15i9)
     4767        3        4        3        0      214      213      172      173
     4768        3        4        3        0      255      254      213      214
     4769        3        4        3        0      296      295      254      255
     4770        3        4        3        0      542      541      500      501
     4771        3        4        3        0      583      582      541      542
     4772        3        4        3        0      624      623      582      583
     4773        3        4        3        0      870      869      828      829
     4774        3        4        3        0      911      910      869      870
     4775        3        4        3        0      952      951      910      911
     4776        3        4        3        0     1198     1197     1156     1157
     4777        3        4        3        0     1239     1238     1197     1198
     4778        3        4        3        0     1280     1279     1238     1239
     4779        3        4        3        0      215      214      173      174
     4780        3        4        3        0      256      255      214      215
     4781        3        4        3        0      297      296      255      256
     4782        3        4        3        0      543      542      501      502
     4783        3        4        3        0      584      583      542      543
     4784        3        4        3        0      625      624      583      584
     4785        3        4        3        0      871      870      829      830
     4786        3        4        3        0      912      911      870      871
! ... 517 like lines cut
eblock,10,,,536
(15i9)
     5303        4        3        4        0      214      213      172      173
     5304        4        3        4        0      255      254      213      214
     5305        4        3        4        0      296      295      254      255
     5306        4        3        4        0      542      541      500      501
     5307        4        3        4        0      583      582      541      542
     5308        4        3        4        0      624      623      582      583
     5309        4        3        4        0      870      869      828      829
     5310        4        3        4        0      911      910      869      870
     5311        4        3        4        0      952      951      910      911
     5312        4        3        4        0     1198     1197     1156     1157
     5313        4        3        4        0     1239     1238     1197     1198
     5314        4        3        4        0     1280     1279     1238     1239
     5315        4        3        4        0      215      214      173      174
     5316        4        3        4        0      256      255      214      215
     5317        4        3        4        0      297      296      255      256
     5318        4        3        4        0      543      542      501      502
     5319        4        3        4        0      584      583      542      543
     5320        4        3        4        0      625      624      583      584
     5321        4        3        4        0      871      870      829      830
     5322        4        3        4        0      912      911      870      871
! ... 517 like lines cut
keyo,cid,8,2               ! auto create asymmetric contact (from Program Controlled setting)
keyo,cid,10,0              ! adjust contact stiffness each NR iteration (from Program Controlled setting)
keyo,cid,12,5              ! bonded always
keyo,cid,18,1              ! small sliding turned on by application
keyo,cid,2,0               ! augmented Lagrange (from Program Controlled setting)
keyo,cid,4,0               ! on Gauss point (from Program Controlled setting)
keyo,cid,9,1               ! ignore initial gaps/penetration
keyo,cid,7,0               ! No Prediction
rmod,tid,3,10.      ! FKN
rmod,tid,5,0.       ! ICONT
rmod,tid,6,-9.10068704922461  ! PINB
rmod,tid,10,0.      ! CNOF
rmod,tid,12,0.      ! FKT
rmod,tid,36,28      ! WB DSID
rmod,cid,3,10.      ! FKN
rmod,cid,5,0.       ! ICONT
rmod,cid,6,-9.10068704922461  ! PINB
rmod,cid,10,0.      ! CNOF
rmod,cid,12,0.      ! FKT
rmod,cid,36,28      ! WB DSID
nsel,all
esel,all
/wb,contact,end            !  done creating contacts
/golist
/wb,load,start             !  starting to send loads
/com,*********** Fixed Supports ***********
CMBLOCK,_FIXEDSU,NODE,      153
(8i10)
      1835      1836      1837      1838      1839      1840      1841      1842
      1851      1852      1861      1862      1871      1872      1881      1882
      1891      1892      1901      1902      1919      1920      1921      1922
      1931      1932      1941      1942      1951      1952      1961      1962
      2155      2156      2157      2158      2159      2160      2169      2170
      2179      2180      2189      2190      2199      2200      2209      2210
      2219      2220      2413      2414      2415      2416      2417      2418
      3283      3284      3285      3286      3287      3288      3511      3512
      3513      3514      3515      3563      3564      3565      3566      3567
      3568      3569      3570      3571      3572      3573      3574      3575
      3576      3577      3578      3579      3580      3581      3582      3583
      3584      3585      3586      3587      3588      3589      3949      3950
      3951      3997      3998      3999      4000      4001      4002      4003
      4004      4005      4006      4007      4008      4009      4010      4011
      4012      4013      4014      4015      4016      4017      4018      4019
      4020      4021      4022      4023      4506      4507      4511      4514
      4534      4553      4572      4591      4610      4628      4656      4658
      4678      4697      4716      4735      5079      5082      5085      5105
      5124      5143      5162      5181      5199      5531      5534      7011
      7014
cmsel,s,_FIXEDSU
d,all,all
nsel,all
/gst,on,on
fini
*get,_numnode,node,0,count
*get,_numelem,elem,0,count
*get, _MAXELEMNUM, elem, 0, NUM, MAX
*get, _MAXNODENUM, node, 0, NUM, MAX
*get, _MAXELEMTYPE, etyp, 0, NUM, MAX
*get, _MAXREALCONST, real, 0, NUM, MAX
/go
/wb,load,end               !  done creating loads
/com,--- Number of total nodes = %_numnode%
/com,--- Number of contact elements = 2008
/com,--- Number of spring elements = 0
/com,--- Number of bearing elements = 0
/com,--- Number of solid elements = 2178
/com,--- Number of condensed parts = 0
/com,--- Number of total elements = %_numelem%
*get,_wallbsol,active,,time,wall
/com,****************************************************************************
/com,*************************    SOLUTION       ********************************
/com,****************************************************************************
/solu
antype,0                   ! static analysis
_thickRatio=0.5     ! Ratio of thick parts in the model
eqsl,sparse,,,,,1
cntr,print,1               ! print out contact info and also make no initial contact an error
dmpoption,emat,no             ! Don't combine emat file for DANSYS
dmpoption,esav,no             ! Don't combine esav file for DANSYS
nldiag,cont,iter           ! print out contact info each equilibrium iteration
rescontrol,,none                 ! Do not keep any restart files
/com,****************************************************
/com,******************* SOLVE FOR LS 1 OF 1 ****************
acel,0.,9806.65,0.
/nopr
/gopr
/nolist
nsub,1,1,1
time,1.
outres,erase
outres,all,none
outres,nsol,all,
outres,rsol,all
outres,eangl,all
outres,etmp,all
outres,veng,all
outres,strs,all,
outres,epel,all,
outres,eppl,all,
outres,cont,all,
! *********** WB SOLVE COMMAND ***********
! check interactive state
*get,ANSINTER_,active,,int
*if,ANSINTER_,ne,0,then
/eof
*endif
solve
/com *************** Write FE CONNECTORS ********* 
CEWRITE,file,ce,,INTE
/com,****************************************************
/com,*************** FINISHED SOLVE FOR LS 1 *************
*get,_wallasol,active,,time,wall
/nopr
*get,_numnode,node,0,count
*get,_numelem,elem,0,count
*get, _MAXELEMNUM, elem, 0, NUM, MAX
*get, _MAXNODENUM, node, 0, NUM, MAX,,,INTERNAL
*get, _MAXELEMTYPE, etyp, 0, NUM, MAX
*get, _MAXREALCONST, real, 0, NUM, MAX
/gopr
/post1
xmlo,ENCODING,ISO-8859-1
xmlo,parm
/xml,parm,xml
fini
/gopr
*get,_walldone,active,,time,wall
_preptime=(_wallbsol-_wallstrt)*3600
_solvtime=(_wallasol-_wallbsol)*3600
_posttime=(_walldone-_wallasol)*3600
_totaltim=(_walldone-_wallstrt)*3600
*get,_dlbratio,active,0,solu,dlbr
*get,_combtime,active,0,solu,comb
/com,--- Total number of nodes = %_numnode%
/com,--- Total number of elements = %_numelem%
/com,--- Element load balance ratio = %_dlbratio%
/com,--- Time to combine distributed files = %_combtime%
/wb,file,end               ! done with WB generated input
