/batch
/config,noeldb,1     ! force off writing results to database
*get,_wallstrt,active,,time,wall
! ANSYS input file written by Workbench version 2021 R1
! File used for geometry attach: C:\Users\ASUS\Documents\ANSYS\ANSYS2021\Sec13-4\Snap_files\dp0\SYS\DM\SYS.agdb
/title,Snap--Static Structural (A5)
! ****** Begin Custom Load Command Snippet ******
/COM, ACT Extensions:
/COM,     LSDYNA, 2021.1
/COM,     5f463412-bd3e-484b-87e7-cbc0a665e474, wbex
/COM,
! ****** End   Custom Load Command Snippet ******
*DIM,_wb_ProjectScratch_dir,string,248
_wb_ProjectScratch_dir(1) = 'C:\Users\ASUS\Documents\ANSYS\ANSYS2021\Sec13-4\_ProjectScratch\ScrD1EB\'
*DIM,_wb_SolverFiles_dir,string,248
_wb_SolverFiles_dir(1) = 'C:\Users\ASUS\Documents\ANSYS\ANSYS2021\Sec13-4\Snap_files\dp0\SYS\MECH\'
*DIM,_wb_userfiles_dir,string,248
_wb_userfiles_dir(1) = 'C:\Users\ASUS\Documents\ANSYS\ANSYS2021\Sec13-4\Snap_files\user_files\'
/com,--- Data in consistent NMM units. See Solving Units in the help system for more information.
/units,MPA
/nopr
/wb,file,start              !  signify a WB generated input file
/prep7
! Turn off shape checking because checks already performed inside WB mesher.
! See help system for more information.
SHPP,OFF,,NOWARN
/nolist
etcon,set             ! allow ANSYS to choose best KEYOP's for 180x elements, resets any applicable keyopt to MAPDL defaults
/com,*********** Nodes for the whole assembly ***********
nblock,3,,4105
(1i9,3e20.9e3)
        1     1.300000000E+01     4.856000000E+01     0.000000000E+00
        2     1.000000000E+01     3.856000000E+01     0.000000000E+00
        3     1.240648735E+01     4.658162452E+01     0.000000000E+00
        4     1.188457334E+01     4.484191115E+01     0.000000000E+00
        5     1.146403087E+01     4.344010289E+01     0.000000000E+00
        6     1.112734106E+01     4.231780354E+01     0.000000000E+00
        7     1.085778392E+01     4.141927975E+01     0.000000000E+00
        8     1.064197405E+01     4.069991349E+01     0.000000000E+00
        9     1.046919543E+01     4.012398477E+01     0.000000000E+00
       10     1.033086742E+01     3.966289140E+01     0.000000000E+00
       11     1.022012140E+01     3.929373801E+01     0.000000000E+00
       12     1.013136948E+01     3.899789825E+01     0.000000000E+00
       13     1.006013171E+01     3.876043902E+01     0.000000000E+00
       14     2.000000000E+01     4.856000000E+01     0.000000000E+00
       15     1.529910013E+01     4.856000000E+01     0.000000000E+00
       16     1.764164465E+01     4.856000000E+01     0.000000000E+00
       17     2.000000000E+01     5.556000000E+01     0.000000000E+00
       18     2.000000000E+01     5.089333333E+01     0.000000000E+00
       19     2.000000000E+01     5.322666667E+01     0.000000000E+00
       20     0.000000000E+00     5.556000000E+01     0.000000000E+00
! ... 3713 like lines cut
/wb,elem,start            !  set before creation of elements
/com,*********** Elements for Body 1 "Prong" ***********
et,1,183
keyo,1,3,3
eblock,19,solid,,647
(19i9)
        1        1        1        1        0        0        0        0        8        0      516     2104     2245     2244     2244     3447     3644     2244     3446
        1        1        1        1        0        0        0        0        8        0      517     2349     2016     2320     2320     3227     3226     2320     3726
        1        1        1        1        0        0        0        0        8        0      518     1961     2351     2290     2290     3087     3699     2290     3086
        1        1        1        1        0        0        0        0        8        0      519     1976     1955     2305     2305     3069     3071     2305     3124
        1        1        1        1        0        0        0        0        8        0      520     1912     1903     2369     2369     2940     2942     2369     2964
        1        1        1        1        0        0        0        0        8        0      521     1906     1941     1940     1940     2950     3029     1940     2949
        1        1        1        1        0        0        0        0        8        0      522     1844     1866     2345     2345     2790     2849     2345     2792
        1        1        1        1        0        0        0        0        8        0      523     1834     1841     1835     1835     2759     2764     1835     2758
        1        1        1        1        0        0        0        0        8        0      524     2277     2322     1842     1842     3683     2786     1842     2784
        1        1        1        1        0        0        0        0        8        0      525     1902     1970     2332     2332     2936     3109     2332     2937
        1        1        1        1        0        0        0        0        8        0      526     2027     2020     2338     2338     3236     3238     2338     3256
        1        1        1        1        0        0        0        0        8        0      527     2353     1840     1838     1838     2781     2772     1838     2775
        1        1        1        1        0        0        0        0        8        0      528     1893     1902     2345     2345     2911     2938     2345     2914
        1        1        1        1        0        0        0        0        8        0      529     1804     1805     1909     2330     2658     2662     2956     2661
        1        1        1        1        0        0        0        0        8        0      530     2330     1945     1944     1804     3042     3036     2660     2661
        1        1        1        1        0        0        0        0        8        0      531     1944     2345     1902     1804     3038     2938     2659     2660
        1        1        1        1        0        0        0        0        8        0      532     1805     1804     1902     2332     2658     2659     2937     2664
        1        1        1        1        0        0        0        0        8        0      533     1805     2286     1903     1909     2663     2941     2939     2662
        1        1        1        1        0        0        0        0        8        0      534     1805     2332     1806     2286     2664     2668     2667     2663
        1        1        1        1        0        0        0        0        8        0      535     1969     2326     2286     1806     3106     3695     2667     2665
! ... 628 like lines cut
!Material Id = {421DBA8A-463B-47B4-ADBF-17CD9C80156B}
/com,*********** Elements for Body 2 "Insert" ***********
et,2,183
keyo,2,3,3
eblock,19,solid,,515
(19i9)
        2        2        2        2        0        0        0        0        8        0        1       55      511       54       54      683      681       54      680
        2        2        2        2        0        0        0        0        8        0        2      521      426      499      499     1533     1532      499     1619
        2        2        2        2        0        0        0        0        8        0        3      392      394      237      237     1472     1122      237     1121
        2        2        2        2        0        0        0        0        8        0        4      220      524      258      258     1083     1164      258     1081
        2        2        2        2        0        0        0        0        8        0        5      176      151      202      202      904      905      202      976
        2        2        2        2        0        0        0        0        8        0        6      156      149      166      166      896      898      166      917
        2        2        2        2        0        0        0        0        8        0        7      155      150      192      192      900      901      192      916
        2        2        2        2        0        0        0        0        8        0        8      145      530      546      546      884     1654      546      885
        2        2        2        2        0        0        0        0        8        0        9      543      159      181      181      928      927      181      990
        2        2        2        2        0        0        0        0        8        0       10      160      267      207      207      931     1049      207      930
        2        2        2        2        0        0        0        0        8        0       11      209      250      126      125     1053      825      820      821
        2        2        2        2        0        0        0        0        8        0       12      209      125      296      295      821      823     1244     1054
        2        2        2        2        0        0        0        0        8        0       13      125      291      325      296      822     1236     1246      823
        2        2        2        2        0        0        0        0        8        0       14      291      125      126      134      822      820      824      850
        2        2        2        2        0        0        0        0        8        0       15      250      210      134      126     1056      849      824      825
        2        2        2        2        0        0        0        0        8        0       16      536      361      339      520     1402     1353     1355     1645
        2        2        2        2        0        0        0        0        8        0       17      339      338      519      520     1349     1351     1644     1355
        2        2        2        2        0        0        0        0        8        0       18      128      127      171      189      826      828      963      831
        2        2        2        2        0        0        0        0        8        0       19      128      567      153      127      832      911      827      826
        2        2        2        2        0        0        0        0        8        0       20      229      140      573      169      868      869      959      957
! ... 496 like lines cut
!Material Id = {29BF2C77-6557-4507-B1DB-5DBD313351C8}
/wb,elem,end               !  done creating elements
/com,*********** Send User Defined Coordinate System(s) ***********
csys,0
toffst,273.15,  ! Temperature offset from absolute zero
/com,*********** Set Reference Temperature ***********
tref,22.
/wb,mat,start              !  starting to send materials
/com,*********** Send Materials ***********
MP,EX,1,2800,	! tonne s^-2 mm^-1
MP,NUXY,1,0.35,

MP,EX,2,2800,	! tonne s^-2 mm^-1
MP,NUXY,2,0.35,

/wb,mat,end                !  done sending materials
/com,*********** Send Sheet Properties ***********
r,1,5.

r,2,5.

!************************* Model Summary ********************
!Prong,	Plastic,	matid,	1
!Insert,	Plastic,	matid,	2
!************************* End Model Summary ********************
! get the diagonal of the bounding box. Needed later for other things
*get,_xmin,node,,mnloc,x
*get,_ymin,node,,mnloc,y
*get,_zmin,node,,mnloc,z
*get,_xmax,node,,mxloc,x
*get,_ymax,node,,mxloc,y
*get,_zmax,node,,mxloc,z
_ASMDIAG=(_xmax-_xmin)*(_xmax-_xmin)+(_ymax-_ymin)*(_ymax-_ymin)+(_zmax-_zmin)*(_zmax-_zmin)
_ASMDIAG=SQRT(_ASMDIAG)
/wb,contact,start          !  starting to send contact
/com,*********** Create Contact "Frictional - Prong To Insert" ***********
/com,            Real Constant Set For Above Contact Is 4 & 3 
*set,tid,4
*set,cid,3
r,tid
r,cid
et,tid,169
et,cid,172
eblock,10,,,84
(15i9)
     1163        4        4        4        0     1733     1721     2493
     1164        4        4        4        0     1732     1733     2516
     1165        4        4        4        0     1731     1732     2514
     1166        4        4        4        0     1730     1731     2512
     1167        4        4        4        0     1729     1730     2510
     1168        4        4        4        0     1728     1729     2508
     1169        4        4        4        0     1727     1728     2506
     1170        4        4        4        0     1726     1727     2504
     1171        4        4        4        0     1725     1726     2502
     1172        4        4        4        0     1724     1725     2500
     1173        4        4        4        0     1723     1724     2498
     1174        4        4        4        0     1722     1723     2496
     1175        4        4        4        0     1711     1722     2474
     1176        4        4        4        0     1770     1734     2519
     1177        4        4        4        0     1769     1770     2590
     1178        4        4        4        0     1768     1769     2588
     1179        4        4        4        0     1767     1768     2586
     1180        4        4        4        0     1766     1767     2584
     1181        4        4        4        0     1765     1766     2582
     1182        4        4        4        0     1764     1765     2580
! ... 65 like lines cut
eblock,10,,,84
(15i9)
     1247        3        3        3        0     1733     1721     2493
     1248        3        3        3        0     1732     1733     2516
     1249        3        3        3        0     1731     1732     2514
     1250        3        3        3        0     1730     1731     2512
     1251        3        3        3        0     1729     1730     2510
     1252        3        3        3        0     1728     1729     2508
     1253        3        3        3        0     1727     1728     2506
     1254        3        3        3        0     1726     1727     2504
     1255        3        3        3        0     1725     1726     2502
     1256        3        3        3        0     1724     1725     2500
     1257        3        3        3        0     1723     1724     2498
     1258        3        3        3        0     1722     1723     2496
     1259        3        3        3        0     1711     1722     2474
     1260        3        3        3        0     1770     1734     2519
     1261        3        3        3        0     1769     1770     2590
     1262        3        3        3        0     1768     1769     2588
     1263        3        3        3        0     1767     1768     2586
     1264        3        3        3        0     1766     1767     2584
     1265        3        3        3        0     1765     1766     2582
     1266        3        3        3        0     1764     1765     2580
! ... 65 like lines cut
eblock,10,,,68
(15i9)
     1331        3        4        3        0      105        2      579
     1332        3        4        3        0      106      105      781
     1333        3        4        3        0      107      106      783
     1334        3        4        3        0      108      107      785
     1335        3        4        3        0      109      108      787
     1336        3        4        3        0      110      109      789
     1337        3        4        3        0      111      110      791
     1338        3        4        3        0      112      111      793
     1339        3        4        3        0      113      112      795
     1340        3        4        3        0      114      113      797
     1341        3        4        3        0      115      114      799
     1342        3        4        3        0      116      115      801
     1343        3        4        3        0      117      116      803
     1344        3        4        3        0      118      117      805
     1345        3        4        3        0      119      118      807
     1346        3        4        3        0      120      119      809
     1347        3        4        3        0      121      120      811
     1348        3        4        3        0      122      121      813
     1349        3        4        3        0      123      122      815
     1350        3        4        3        0      124      123      817
! ... 49 like lines cut
eblock,10,,,68
(15i9)
     1399        4        3        4        0      105        2      579
     1400        4        3        4        0      106      105      781
     1401        4        3        4        0      107      106      783
     1402        4        3        4        0      108      107      785
     1403        4        3        4        0      109      108      787
     1404        4        3        4        0      110      109      789
     1405        4        3        4        0      111      110      791
     1406        4        3        4        0      112      111      793
     1407        4        3        4        0      113      112      795
     1408        4        3        4        0      114      113      797
     1409        4        3        4        0      115      114      799
     1410        4        3        4        0      116      115      801
     1411        4        3        4        0      117      116      803
     1412        4        3        4        0      118      117      805
     1413        4        3        4        0      119      118      807
     1414        4        3        4        0      120      119      809
     1415        4        3        4        0      121      120      811
     1416        4        3        4        0      122      121      813
     1417        4        3        4        0      123      122      815
     1418        4        3        4        0      124      123      817
! ... 49 like lines cut
keyo,cid,8,2               ! auto create asymmetric contact (from Program Controlled setting)
keyo,cid,10,0              ! adjust contact stiffness each NR iteration (from Program Controlled setting)
keyo,cid,12,0              ! standard contact
mp,mu,cid,0.1       ! unitless
keyo,cid,2,0               ! augmented Lagrange (from Program Controlled setting)
keyo,cid,4,0               ! on Gauss point (from Program Controlled setting)
keyo,cid,9,0               ! use real geometry with stepped effects
keyo,cid,7,0               ! No Prediction
rmod,tid,3,1.       ! FKN
rmod,tid,5,0.       ! ICONT
rmod,tid,6,1.       ! PINB
rmod,tid,10,0.      ! CNOF
rmod,tid,12,0.      ! FKT
rmod,tid,36,28      ! WB DSID
rmod,cid,3,1.       ! FKN
rmod,cid,5,0.       ! ICONT
rmod,cid,6,1.       ! PINB
rmod,cid,10,0.      ! CNOF
rmod,cid,12,0.      ! FKT
rmod,cid,36,28      ! WB DSID
nsel,all
esel,all
/wb,contact,end            !  done creating contacts
/golist
/wb,load,start             !  starting to send loads
/com,*********** Fixed Supports ***********
CMBLOCK,_FIXEDSU,NODE,       19
(8i10)
      1681      1684      1685      1686      1687      1688      1689      1690
      1691      1692      2417      2421      2423      2425      2427      2429
      2431      2433      2435
cmsel,s,_FIXEDSU
d,all,all
nsel,all
/com,********* Frictionless Supports X *********
CMBLOCK,_FRICSUX,NODE,       13
(8i10)
        20        29        30        31       614       630       632      1675
      1682      1683      2406      2416      2418
cmsel,s,_FRICSUX
d,all,ux,0
nsel,all
/com,*********** Create Displacement Tables and Functions ******

*DIM,_loadvari42yp,TABLE,3,1,1,TIME,
! Time values
_loadvari42yp(1,0,1) = 0.
_loadvari42yp(2,0,1) = 1.
_loadvari42yp(3,0,1) = 2.
! Load values
_loadvari42yp(1,1,1) = 0.
_loadvari42yp(2,1,1) = -18.56
_loadvari42yp(3,1,1) = 0.


*DIM,_loadvari42yn,TABLE,3,1,1,TIME,
! Time values
_loadvari42yn(1,0,1) = 0.
_loadvari42yn(2,0,1) = 1.
_loadvari42yn(3,0,1) = 2.
! Load values
_loadvari42yn(1,1,1) = 0.
_loadvari42yn(2,1,1) = 18.56
_loadvari42yn(3,1,1) = 0.

/gst,on,on
fini
*get,_numnode,node,0,count
*get,_numelem,elem,0,count
*get, _MAXELEMNUM, elem, 0, NUM, MAX
*get, _MAXNODENUM, node, 0, NUM, MAX
*get, _MAXELEMTYPE, etyp, 0, NUM, MAX
*get, _MAXREALCONST, real, 0, NUM, MAX
/go
/wb,load,end               !  done creating loads
/com,--- Number of total nodes = %_numnode%
/com,--- Number of contact elements = 304
/com,--- Number of spring elements = 0
/com,--- Number of bearing elements = 0
/com,--- Number of solid elements = 1162
/com,--- Number of condensed parts = 0
/com,--- Number of total elements = %_numelem%
*get,_wallbsol,active,,time,wall
/com,****************************************************************************
/com,*************************    SOLUTION       ********************************
/com,****************************************************************************
/solu
antype,0                   ! static analysis
nlgeom,on                  ! Turn on Large Deformation Effects
_thickRatio=  0     ! Ratio of thick parts in the model
eqsl,sparse,,,,,1
cntr,print,1               ! print out contact info and also make no initial contact an error
dmpoption,emat,no             ! Don't combine emat file for DANSYS
dmpoption,esav,no             ! Don't combine esav file for DANSYS
nldiag,cont,iter           ! print out contact info each equilibrium iteration
rescontrol,define,last,last,,dele	   ! Program Controlled
/com,****************************************************
/com,******************* SOLVE FOR LS 1 OF 2 ****************
/com,*** Set Displacements ***
CMBLOCK,_CM42UY_YP,NODE,       19
(8i10)
        17        20        21        22        23        24        25        26
        27        28       609       613       615       617       619       621
       623       625       627
cmsel,s,_CM42UY_YP
d,all,uy,%_loadvari42yp%
nsel,all

/com,*** Component For All Non-Zero UY Displacements ***
cmsel,s,_CM42uy_yp
cm,_DISPNONZEROUY,NODE
nsel,all

/nopr
/gopr
/nolist
autots,on                   ! User turned on automatic time stepping
deltim,0.02,0.002,0.02,OFF
time,1.
outres,erase
outres,all,none
outres,nsol,all,
outres,rsol,all
outres,eangl,all
outres,etmp,all
outres,veng,all
outres,strs,all,
outres,epel,all,
outres,eppl,all,
outres,cont,all,
! *********** WB SOLVE COMMAND ***********
! check interactive state
*get,ANSINTER_,active,,int
*if,ANSINTER_,ne,0,then
/eof
*endif
solve
/com *************** Write FE CONNECTORS ********* 
CEWRITE,file,ce,,INTE
/com,****************************************************
/com,*************** FINISHED SOLVE FOR LS 1 *************
/com,****************************************************
/com,******************* SOLVE FOR LS 2 OF 2 ****************
/com,*** Set Displacements ***
/nopr
/gopr
/nolist
autots,on                   ! User turned on automatic time stepping
deltim,0.002,0.002,0.02,ON
time,2.
outres,erase
outres,all,none
outres,nsol,all,
outres,rsol,all
outres,eangl,all
outres,etmp,all
outres,veng,all
outres,strs,all,
outres,epel,all,
outres,eppl,all,
outres,cont,all,
solve
/com,****************************************************
/com,*************** FINISHED SOLVE FOR LS 2 *************
*get,_wallasol,active,,time,wall
/nopr
*get,_numnode,node,0,count
*get,_numelem,elem,0,count
*get, _MAXELEMNUM, elem, 0, NUM, MAX
*get, _MAXNODENUM, node, 0, NUM, MAX,,,INTERNAL
*get, _MAXELEMTYPE, etyp, 0, NUM, MAX
*get, _MAXREALCONST, real, 0, NUM, MAX
/gopr
/post1
xmlo,ENCODING,ISO-8859-1
xmlo,parm
/xml,parm,xml
fini
/gopr
*get,_walldone,active,,time,wall
_preptime=(_wallbsol-_wallstrt)*3600
_solvtime=(_wallasol-_wallbsol)*3600
_posttime=(_walldone-_wallasol)*3600
_totaltim=(_walldone-_wallstrt)*3600
*get,_dlbratio,active,0,solu,dlbr
*get,_combtime,active,0,solu,comb
/com,--- Total number of nodes = %_numnode%
/com,--- Total number of elements = %_numelem%
/com,--- Element load balance ratio = %_dlbratio%
/com,--- Time to combine distributed files = %_combtime%
/wb,file,end               ! done with WB generated input
