
 ANSYS Mechanical Enterprise Academic Student      


 *------------------------------------------------------------------*
 |                                                                  |
 |   W E L C O M E   T O   T H E   A N S Y S (R)  P R O G R A M     |
 |                                                                  |
 *------------------------------------------------------------------*




 ***************************************************************
 *            ANSYS 2021 R1          LEGAL NOTICES             *
 ***************************************************************
 *                                                             *
 * Copyright 1971-2021 ANSYS, Inc.  All rights reserved.       *
 * Unauthorized use, distribution or duplication is            *
 * prohibited.                                                 *
 *                                                             *
 * Ansys is a registered trademark of ANSYS, Inc. or its       *
 * subsidiaries in the United States or other countries.       *
 * See the ANSYS, Inc. online documentation or the ANSYS, Inc. *
 * documentation CD or online help for the complete Legal      *
 * Notice.                                                     *
 *                                                             *
 ***************************************************************
 *                                                             *
 * THIS ANSYS SOFTWARE PRODUCT AND PROGRAM DOCUMENTATION       *
 * INCLUDE TRADE SECRETS AND CONFIDENTIAL AND PROPRIETARY      *
 * PRODUCTS OF ANSYS, INC., ITS SUBSIDIARIES, OR LICENSORS.    *
 * The software products and documentation are furnished by    *
 * ANSYS, Inc. or its subsidiaries under a software license    *
 * agreement that contains provisions concerning               *
 * non-disclosure, copying, length and nature of use,          *
 * compliance with exporting laws, warranties, disclaimers,    *
 * limitations of liability, and remedies, and other           *
 * provisions.  The software products and documentation may be *
 * used, disclosed, transferred, or copied only in accordance  *
 * with the terms and conditions of that software license      *
 * agreement.                                                  *
 *                                                             *
 * ANSYS, Inc. is a UL registered                              *
 * ISO 9001:2015 company.                                      *
 *                                                             *
 ***************************************************************
 *                                                             *
 * This product is subject to U.S. laws governing export and   *
 * re-export.                                                  *
 *                                                             *
 * For U.S. Government users, except as specifically granted   *
 * by the ANSYS, Inc. software license agreement, the use,     *
 * duplication, or disclosure by the United States Government  *
 * is subject to restrictions stated in the ANSYS, Inc.        *
 * software license agreement and FAR 12.212 (for non-DOD      *
 * licenses).                                                  *
 *                                                             *
 ***************************************************************

 2021 R1 
     
 Point Releases and Patches installed:   
     
 Academic Student 2021 R1
 Aqwa 2021 R1
 EnSight 2021 R1 
 FENSAP-ICE 2021 R1  


          *****  ANSYS COMMAND LINE ARGUMENTS  *****
  BATCH MODE REQUESTED (-b)    = NOLIST
  INPUT FILE COPY MODE (-c)    = COPY
  DISTRIBUTED MEMORY PARALLEL REQUESTED
       2 PARALLEL PROCESSES REQUESTED WITH SINGLE THREAD PER PROCESS
    TOTAL OF     2 CORES REQUESTED
  INPUT FILE NAME              = C:\Users\ASUS\Documents\ANSYS\ANSYS2021\Sec13-4\_ProjectScratch\ScrD1EB\dummy.dat
  OUTPUT FILE NAME             = C:\Users\ASUS\Documents\ANSYS\ANSYS2021\Sec13-4\_ProjectScratch\ScrD1EB\solve.out
  START-UP FILE MODE           = NOREAD
  STOP FILE MODE               = NOREAD

 RELEASE= 2021 R1              BUILD= 21.1      UP20201109   VERSION=WINDOWS x64 
 CURRENT JOBNAME=file0  08:57:28  MAR 31, 2021 CP=      0.250


 PARAMETER _DS_PROGRESS =     999.0000000    

 /INPUT FILE= ds.dat  LINE=       0



 *** NOTE ***                            CP =       0.312   TIME= 08:57:28
 The /CONFIG,NOELDB command is not valid in a Distributed ANSYS          
 solution.  Command is ignored.                                          

 *GET  _WALLSTRT  FROM  ACTI  ITEM=TIME WALL  VALUE=  8.95777778    

 TITLE= 
 Snap--Static Structural (A5)                                                  

  ACT Extensions:
      LSDYNA, 2021.1
      5f463412-bd3e-484b-87e7-cbc0a665e474, wbex
  

 SET PARAMETER DIMENSIONS ON  _WB_PROJECTSCRATCH_DIR
  TYPE=STRI  DIMENSIONS=      248        1        1

 PARAMETER _WB_PROJECTSCRATCH_DIR(1) = C:\Users\ASUS\Documents\ANSYS\ANSYS2021\Sec13-4\_ProjectScratch\ScrD1EB\

 SET PARAMETER DIMENSIONS ON  _WB_SOLVERFILES_DIR
  TYPE=STRI  DIMENSIONS=      248        1        1

 PARAMETER _WB_SOLVERFILES_DIR(1) = C:\Users\ASUS\Documents\ANSYS\ANSYS2021\Sec13-4\Snap_files\dp0\SYS\MECH\

 SET PARAMETER DIMENSIONS ON  _WB_USERFILES_DIR
  TYPE=STRI  DIMENSIONS=      248        1        1

 PARAMETER _WB_USERFILES_DIR(1) = C:\Users\ASUS\Documents\ANSYS\ANSYS2021\Sec13-4\Snap_files\user_files\
 --- Data in consistent NMM units. See Solving Units in the help system for more

 MPA UNITS SPECIFIED FOR INTERNAL    
  LENGTH      = MILLIMETERS (mm)
  MASS        = TONNE (Mg)
  TIME        = SECONDS (sec)
  TEMPERATURE = CELSIUS (C)
  TOFFSET     = 273.0
  FORCE       = NEWTON (N)
  HEAT        = MILLIJOULES (mJ)

 INPUT  UNITS ARE ALSO SET TO MPA 

 *** ANSYS - ENGINEERING ANALYSIS SYSTEM  RELEASE 2021 R1          21.1     ***
 DISTRIBUTED ANSYS Mechanical Enterprise Academic Student      

 00000000  VERSION=WINDOWS x64   08:57:28  MAR 31, 2021 CP=      0.312

 Snap--Static Structural (A5)                                                  



          ***** ANSYS ANALYSIS DEFINITION (PREP7) *****
 *********** Nodes for the whole assembly ***********
 *********** Elements for Body 1 "Prong" ***********
 *********** Elements for Body 2 "Insert" ***********
 *********** Send User Defined Coordinate System(s) ***********
 *********** Set Reference Temperature ***********
 *********** Send Materials ***********
 *********** Send Sheet Properties ***********
 *********** Create Contact "Frictional - Prong To Insert" ***********
             Real Constant Set For Above Contact Is 4 & 3
 *********** Fixed Supports ***********
 ********* Frictionless Supports X *********
 *********** Create Displacement Tables and Functions ******


 ***** ROUTINE COMPLETED *****  CP =         0.359


 --- Number of total nodes = 3732
 --- Number of contact elements = 304
 --- Number of spring elements = 0
 --- Number of bearing elements = 0
 --- Number of solid elements = 1162
 --- Number of condensed parts = 0
 --- Number of total elements = 1466

 *GET  _WALLBSOL  FROM  ACTI  ITEM=TIME WALL  VALUE=  8.95777778    
 ****************************************************************************
 *************************    SOLUTION       ********************************
 ****************************************************************************

 *****  ANSYS SOLUTION ROUTINE  *****


 PERFORM A STATIC ANALYSIS
  THIS WILL BE A NEW ANALYSIS

 LARGE DEFORMATION ANALYSIS

 PARAMETER _THICKRATIO =     0.000000000    

 USE SPARSE MATRIX DIRECT SOLVER

 CONTACT INFORMATION PRINTOUT LEVEL       1

 DO NOT COMBINE ELEMENT MATRIX FILES (.emat) AFTER DISTRIBUTED PARALLEL SOLUTION

 DO NOT COMBINE ELEMENT SAVE DATA FILES (.esav) AFTER DISTRIBUTED PARALLEL SOLUTION

 NLDIAG: Nonlinear diagnostics CONT option is set to ON. 
         Writing frequency : each ITERATION.

 DEFINE RESTART CONTROL FOR LOADSTEP LAST
 AT FREQUENCY OF LAST AND NUMBER FOR OVERWRITE IS   -1

 DELETE RESTART FILES OF ENDSTEP
 ****************************************************
 ******************* SOLVE FOR LS 1 OF 2 ****************
 *** Set Displacements ***
 CMBLOCK read of NODE component _CM42UY_YP  completed

 SELECT      COMPONENT _CM42UY_YP                      

 SPECIFIED CONSTRAINT UY   FOR SELECTED NODES            1 TO        3732 BY           1
 SET ACCORDING TO TABLE PARAMETER = _LOADVARI42YP

 ALL SELECT   FOR ITEM=NODE COMPONENT=    
  IN RANGE         1 TO       3732 STEP          1

       3732  NODES (OF       3732  DEFINED) SELECTED BY NSEL  COMMAND.
 *** Component For All Non-Zero UY Displacements ***

 SELECT      COMPONENT _CM42UY_YP                      

 DEFINITION OF COMPONENT = _DISPNONZEROUY  ENTITY=NODE

 ALL SELECT   FOR ITEM=NODE COMPONENT=    
  IN RANGE         1 TO       3732 STEP          1

       3732  NODES (OF       3732  DEFINED) SELECTED BY NSEL  COMMAND.

 PRINTOUT RESUMED BY /GOP

 USE AUTOMATIC TIME STEPPING THIS LOAD STEP

 USE INITIAL TIME STEP SIZE OF 0.2000000E-01 FOR ALL  DEGREES OF FREEDOM
 FOR AUTOMATIC TIME STEPPING:
   USE 0.2000000E-02 AS THE MINIMUM TIME STEP SIZE
   USE 0.2000000E-01 AS THE MAXIMUM TIME STEP SIZE

 TIME=  1.0000    

 ERASE THE CURRENT DATABASE OUTPUT CONTROL TABLE.


 WRITE ALL  ITEMS TO THE DATABASE WITH A FREQUENCY OF NONE
   FOR ALL APPLICABLE ENTITIES

 WRITE NSOL ITEMS TO THE DATABASE WITH A FREQUENCY OF ALL 
   FOR ALL APPLICABLE ENTITIES

 WRITE RSOL ITEMS TO THE DATABASE WITH A FREQUENCY OF ALL 
   FOR ALL APPLICABLE ENTITIES

 WRITE EANG ITEMS TO THE DATABASE WITH A FREQUENCY OF ALL 
   FOR ALL APPLICABLE ENTITIES

 WRITE ETMP ITEMS TO THE DATABASE WITH A FREQUENCY OF ALL 
   FOR ALL APPLICABLE ENTITIES

 WRITE VENG ITEMS TO THE DATABASE WITH A FREQUENCY OF ALL 
   FOR ALL APPLICABLE ENTITIES

 WRITE STRS ITEMS TO THE DATABASE WITH A FREQUENCY OF ALL 
   FOR ALL APPLICABLE ENTITIES

 WRITE EPEL ITEMS TO THE DATABASE WITH A FREQUENCY OF ALL 
   FOR ALL APPLICABLE ENTITIES

 WRITE EPPL ITEMS TO THE DATABASE WITH A FREQUENCY OF ALL 
   FOR ALL APPLICABLE ENTITIES

 WRITE CONT ITEMS TO THE DATABASE WITH A FREQUENCY OF ALL 
   FOR ALL APPLICABLE ENTITIES

 *GET  ANSINTER_  FROM  ACTI  ITEM=INT        VALUE=  0.00000000    

 *IF  ANSINTER_                         ( =   0.00000     )  NE  
      0                                 ( =   0.00000     )  THEN    

 *ENDIF

 *** NOTE ***                            CP =       0.391   TIME= 08:57:28
 The automatic domain decomposition logic has selected the MESH domain   
 decomposition method with 2 processes per solution.                     

 *****  ANSYS SOLVE    COMMAND  *****

 *** WARNING ***                         CP =       0.391   TIME= 08:57:28
 Element shape checking is currently inactive.  Issue SHPP,ON or         
 SHPP,WARN to reactivate, if desired.                                    

 *** NOTE ***                            CP =       0.391   TIME= 08:57:28
 The model data was checked and warning messages were found.             
  Please review output or errors file (                                  
 C:\Users\ASUS\Documents\ANSYS\ANSYS2021\Sec13-4\_ProjectScratch\ScrD1EB 
 B\file0.err ) for these warning messages.                               

 *** SELECTION OF ELEMENT TECHNOLOGIES FOR APPLICABLE ELEMENTS ***
      --- GIVE SUGGESTIONS AND RESET THE KEY OPTIONS ---

 ELEMENT TYPE         1 IS PLANE183 WITH PLANE STRESS OPTION. NO SUGGESTION IS
 AVAILABLE AND NO RESETTING IS NEEDED.

 ELEMENT TYPE         2 IS PLANE183 WITH PLANE STRESS OPTION. NO SUGGESTION IS
 AVAILABLE AND NO RESETTING IS NEEDED.



 *** ANSYS - ENGINEERING ANALYSIS SYSTEM  RELEASE 2021 R1          21.1     ***
 DISTRIBUTED ANSYS Mechanical Enterprise Academic Student      

 00000000  VERSION=WINDOWS x64   08:57:28  MAR 31, 2021 CP=      0.391

 Snap--Static Structural (A5)                                                  



                       S O L U T I O N   O P T I O N S

   PROBLEM DIMENSIONALITY. . . . . . . . . . . . .2-D                  
   DEGREES OF FREEDOM. . . . . . UX   UY  
   ANALYSIS TYPE . . . . . . . . . . . . . . . . .STATIC (STEADY-STATE)
   OFFSET TEMPERATURE FROM ABSOLUTE ZERO . . . . .  273.15    
   NONLINEAR GEOMETRIC EFFECTS . . . . . . . . . .ON
   EQUATION SOLVER OPTION. . . . . . . . . . . . .SPARSE             
   NEWTON-RAPHSON OPTION . . . . . . . . . . . . .PROGRAM CHOSEN   
   GLOBALLY ASSEMBLED MATRIX . . . . . . . . . . .SYMMETRIC  

 *** NOTE ***                            CP =       0.391   TIME= 08:57:28
 This nonlinear analysis defaults to using the full Newton-Raphson       
 solution procedure.  This can be modified using the NROPT command.      

 *** NOTE ***                            CP =       0.391   TIME= 08:57:28
 The conditions for direct assembly have been met.  No .emat or .erot    
 files will be produced.                                                 

 *** NOTE ***                            CP =       0.422   TIME= 08:57:28
 Symmetric Deformable- deformable contact pair identified by real        
 constant set 3 and contact element type 3 has been set up.  The         
 companion pair has real constant set ID 4.  Both pairs should have the  
 same behavior.                                                          
 ANSYS will deactivate the current pair and keep its companion pair,     
 resulting in asymmetric contact.                                        
 Contact algorithm: Augmented Lagrange method
 Contact detection at: Gauss integration point
 Contact stiffness factor FKN                  1.0000    
 The resulting initial contact stiffness      0.24471E+06
 Default penetration tolerance factor FTOLN   0.10000    
 The resulting penetration tolerance          0.22884E-01
 Max. initial friction coefficient MU         0.10000    
 Default tangent stiffness factor FKT          1.0000    
 Default elastic slip factor SLTOL            0.10000E-01
 The resulting elastic slip tolerance         0.20087E-02
 Update contact stiffness at each iteration
 Default Max. friction stress TAUMAX          0.10000E+21
 Average contact surface length               0.20087    
 Average contact pair depth                   0.22884    
 Pinball region factor PINB                    1.0000    
 The resulting pinball region                 0.22884    
 *WARNING*: Initial penetration is included.

 *** NOTE ***                            CP =       0.422   TIME= 08:57:28
 Min.  Initial gap 2.278393573E-03 was detected between contact element  
 1251 and target element 1463.                                           
 You may move entire target surface by: x= 1.734493057E-03, y=           
 -1.477366274E-03, z= 0, to bring it in contact.                         
 ****************************************
  

 *** NOTE ***                            CP =       0.422   TIME= 08:57:28
 Symmetric Deformable- deformable contact pair identified by real        
 constant set 4 and contact element type 3 has been set up.  The         
 companion pair has real constant set ID 3.  Both pairs should have the  
 same behavior.                                                          
 ANSYS will keep the current pair and deactivate its companion pair,     
 resulting in asymmetric contact.                                        
 Contact algorithm: Augmented Lagrange method
 Contact detection at: Gauss integration point
 Contact stiffness factor FKN                  1.0000    
 The resulting initial contact stiffness      0.24471E+06
 Default penetration tolerance factor FTOLN   0.10000    
 The resulting penetration tolerance          0.22164E-01
 Max. initial friction coefficient MU         0.10000    
 Default tangent stiffness factor FKT          1.0000    
 Default elastic slip factor SLTOL            0.10000E-01
 The resulting elastic slip tolerance         0.20207E-02
 Update contact stiffness at each iteration
 Default Max. friction stress TAUMAX          0.10000E+21
 Average contact surface length               0.20207    
 Average contact pair depth                   0.22164    
 Pinball region factor PINB                    1.0000    
 The resulting pinball region                 0.22164    
 *WARNING*: Initial penetration is included.

 *** NOTE ***                            CP =       0.422   TIME= 08:57:28
 Min.  Initial gap 2.278848354E-03 was detected between contact element  
 1394 and target element 1166.                                           
 You may move entire target surface by: x= -1.734824826E-03, y=          
 1.477678125E-03, z= 0, to bring it in contact.                          
 ****************************************
  

 *** WARNING ***                         CP =       0.422   TIME= 08:57:28
 All selected contact pairs are initially open.  Rigid body motion can   
 occur.  You may use auto CNOF/ICONT by setting KEYOPT(5) to close       
 small gaps.                                                             
  
  

  
  
     D I S T R I B U T E D   D O M A I N   D E C O M P O S E R
  
  ...Number of elements: 1466
  ...Number of nodes:    3732
  ...Decompose to 2 CPU domains
  ...Element load balance ratio =     1.127


                      L O A D   S T E P   O P T I O N S

   LOAD STEP NUMBER. . . . . . . . . . . . . . . .     1
   TIME AT END OF THE LOAD STEP. . . . . . . . . .  1.0000    
   AUTOMATIC TIME STEPPING . . . . . . . . . . . .    ON
      STARTING TIME STEP SIZE. . . . . . . . . . . 0.20000E-01
      MINIMUM TIME STEP SIZE . . . . . . . . . . . 0.20000E-02
      MAXIMUM TIME STEP SIZE . . . . . . . . . . . 0.20000E-01
   MAXIMUM NUMBER OF EQUILIBRIUM ITERATIONS. . . .    15
   STEP CHANGE BOUNDARY CONDITIONS . . . . . . . .    NO
   STRESS-STIFFENING . . . . . . . . . . . . . . .    ON
   TERMINATE ANALYSIS IF NOT CONVERGED . . . . . .YES (EXIT)  
   CONVERGENCE CONTROLS. . . . . . . . . . . . . .USE DEFAULTS
   PRINT OUTPUT CONTROLS . . . . . . . . . . . . .NO PRINTOUT
   DATABASE OUTPUT CONTROLS
      ITEM     FREQUENCY   COMPONENT
       ALL       NONE               
      NSOL        ALL               
      RSOL        ALL               
      EANG        ALL               
      ETMP        ALL               
      VENG        ALL               
      STRS        ALL               
      EPEL        ALL               
      EPPL        ALL               
      CONT        ALL               


 SOLUTION MONITORING INFO IS WRITTEN TO FILE= file.mntr                                                                                                                                                                                                                                                           
 MAXIMUM NUMBER OF EQUILIBRIUM ITERATIONS HAS BEEN MODIFIED              
  TO BE, NEQIT = 25, BY SOLUTION CONTROL LOGIC.                          


 Range of element maximum matrix coefficients in global coordinates
 Maximum = 57097.7395 at element 550.                                    
 Minimum = 25158.8903 at element 518.                                    

   *** ELEMENT MATRIX FORMULATION TIMES
     TYPE    NUMBER   ENAME      TOTAL CP  AVE CP

        1       647  PLANE183      0.047   0.000072
        2       515  PLANE183      0.016   0.000030
        3       152  CONTA172      0.000   0.000000
        4       152  TARGE169      0.000   0.000000
 Time at end of element matrix formulation CP = 0.84375.                 

 ALL CURRENT ANSYS DATA WRITTEN TO FILE NAME= file.rdb
  FOR POSSIBLE RESUME FROM THIS POINT
     FORCE CONVERGENCE VALUE  =  0.4877E+05  CRITERION=   248.8    

 DISTRIBUTED SPARSE MATRIX DIRECT SOLVER.
  Number of equations =        7394,    Maximum wavefront =     42

  Local memory allocated for solver              =      5.730 MB
  Local memory required for in-core solution     =      5.518 MB
  Local memory required for out-of-core solution =      3.766 MB

  Total memory allocated for solver              =     10.660 MB
  Total memory required for in-core solution     =     10.271 MB
  Total memory required for out-of-core solution =      7.196 MB

 *** NOTE ***                            CP =       0.938   TIME= 08:57:28
 The Distributed Sparse Matrix Solver is currently running in the        
 in-core memory mode.  This memory mode uses the most amount of memory   
 in order to avoid using the hard drive as much as possible, which most  
 often results in the fastest solution time.  This mode is recommended   
 if enough physical memory is present to accommodate all of the solver   
 data.                                                                   
 curEqn=   4010  totEqn=   4010 Job CP sec=      0.953
      Factor Done= 100% Factor Wall sec=      0.007 rate=    2559.6 Mflops
 Distributed sparse solver maximum pivot= 105994.684 at node 2683 UX.    
 Distributed sparse solver minimum pivot= 274.819388 at node 2467 UX.    
 Distributed sparse solver minimum pivot in absolute value= 274.819388   
 at node 2467 UX.                                                        
     DISP CONVERGENCE VALUE   =  0.3712      CRITERION=  0.1894E-01
    EQUIL ITER   1 COMPLETED.  NEW TRIANG MATRIX.  MAX DOF INC= -0.3712    

 *** WARNING ***                         CP =       0.969   TIME= 08:57:28
 Contact element 1398 (real ID 4) status changes abruptly from           
 no-contact -> contact (with target element 1169).                       
     DISP CONVERGENCE VALUE   =  0.1725      CRITERION=  0.1933E-01
     LINE SEARCH PARAMETER =  0.4647     SCALED MAX DOF INC = -0.1725    
     THERE IS TOO MUCH PENETRATION AT      9 CONTACT POINTS OF THE 2D CONTACT ELEMENTS
     FORCE CONVERGENCE VALUE  =  0.5116E+05  CRITERION=   135.9    
    EQUIL ITER   2 COMPLETED.  NEW TRIANG MATRIX.  MAX DOF INC=   16.06    

 *** ERROR ***                           CP =       1.156   TIME= 08:57:28
 Element 1140 (type = 1, PLANE183) (and maybe other elements) has become 
 highly distorted.  Excessive distortion of elements is usually a        
 symptom indicating the need for corrective action elsewhere.  Try       
 incrementing the load more slowly (increase the number of substeps or   
 decrease the time step size).  You may need to improve your mesh to     
 obtain elements with better aspect ratios.  Also consider the behavior  
 of materials, contact pairs, and/or constraint equations.  Please rule  
 out other root causes of this failure before attempting rezoning or     
 nonlinear adaptive solutions.  If this message appears in the first     
 iteration of first substep, be sure to perform element shape checking.  

 *** ERROR ***                           CP =       1.156   TIME= 08:57:28
 Element 417 (type = 2, PLANE183) (and maybe other elements) has become  
 highly distorted.  Excessive distortion of elements is usually a        
 symptom indicating the need for corrective action elsewhere.  Try       
 incrementing the load more slowly (increase the number of substeps or   
 decrease the time step size).  You may need to improve your mesh to     
 obtain elements with better aspect ratios.  Also consider the behavior  
 of materials, contact pairs, and/or constraint equations.  Please rule  
 out other root causes of this failure before attempting rezoning or     
 nonlinear adaptive solutions.  If this message appears in the first     
 iteration of first substep, be sure to perform element shape checking.  
 *** LOAD STEP     1   SUBSTEP     1  NOT COMPLETED.  CUM ITER =      3
 *** BEGIN BISECTION NUMBER   1    NEW TIME INCREMENT=  0.70000E-02


 Range of element maximum matrix coefficients in global coordinates
 Maximum = 57097.7395 at element 550.                                    
 Minimum = 25158.8903 at element 518.                                    
     FORCE CONVERGENCE VALUE  =  0.1707E+05  CRITERION=   87.10    

 DISTRIBUTED SPARSE MATRIX DIRECT SOLVER.
  Number of equations =        7394,    Maximum wavefront =     42

  Local memory allocated for solver              =      5.825 MB
  Local memory required for in-core solution     =      5.609 MB
  Local memory required for out-of-core solution =      3.802 MB

  Total memory allocated for solver              =     10.778 MB
  Total memory required for in-core solution     =     10.384 MB
  Total memory required for out-of-core solution =      7.211 MB

 *** NOTE ***                            CP =       1.250   TIME= 08:57:29
 The Distributed Sparse Matrix Solver is currently running in the        
 in-core memory mode.  This memory mode uses the most amount of memory   
 in order to avoid using the hard drive as much as possible, which most  
 often results in the fastest solution time.  This mode is recommended   
 if enough physical memory is present to accommodate all of the solver   
 data.                                                                   
 Distributed sparse solver maximum pivot= 106253.564 at node 2683 UX.    
 Distributed sparse solver minimum pivot= 136.988012 at node 1733 UX.    
 Distributed sparse solver minimum pivot in absolute value= 136.988012   
 at node 1733 UX.                                                        
     DISP CONVERGENCE VALUE   =  0.1299      CRITERION=  0.6629E-02
    EQUIL ITER   1 COMPLETED.  NEW TRIANG MATRIX.  MAX DOF INC= -0.1299    
     DISP CONVERGENCE VALUE   =  0.9504E-01  CRITERION=  0.6764E-02
     LINE SEARCH PARAMETER =  0.7315     SCALED MAX DOF INC = -0.9504E-01
     THERE IS TOO MUCH PENETRATION AT      6 CONTACT POINTS OF THE 2D CONTACT ELEMENTS
     FORCE CONVERGENCE VALUE  =  0.1129E+05  CRITERION=   23.86    
    EQUIL ITER   2 COMPLETED.  NEW TRIANG MATRIX.  MAX DOF INC=   3.591    
     DISP CONVERGENCE VALUE   =  0.7300      CRITERION=  0.3878E-01
     LINE SEARCH PARAMETER =  0.2033     SCALED MAX DOF INC =  0.7300    
     FORCE CONVERGENCE VALUE  =   4055.      CRITERION=   19.50    
    EQUIL ITER   3 COMPLETED.  NEW TRIANG MATRIX.  MAX DOF INC= -0.5806    
     DISP CONVERGENCE VALUE   =  0.5806      CRITERION=  0.3957E-01
     LINE SEARCH PARAMETER =   1.000     SCALED MAX DOF INC = -0.5806    
     THERE IS TOO MUCH PENETRATION AT      2 CONTACT POINTS OF THE 2D CONTACT ELEMENTS
     FORCE CONVERGENCE VALUE  =   8606.      CRITERION=  0.4084    
    EQUIL ITER   4 COMPLETED.  NEW TRIANG MATRIX.  MAX DOF INC= -0.2770    
     DISP CONVERGENCE VALUE   =  0.1541      CRITERION=  0.4038E-01
     LINE SEARCH PARAMETER =  0.5565     SCALED MAX DOF INC = -0.1541    
     THERE IS TOO MUCH PENETRATION AT      1 CONTACT POINTS OF THE 2D CONTACT ELEMENTS
     FORCE CONVERGENCE VALUE  =   3775.      CRITERION=  0.3057    
    EQUIL ITER   5 COMPLETED.  NEW TRIANG MATRIX.  MAX DOF INC=  0.1265    
     DISP CONVERGENCE VALUE   =  0.7825E-01  CRITERION=  0.4120E-01
     LINE SEARCH PARAMETER =  0.6185     SCALED MAX DOF INC =  0.7825E-01
     FORCE CONVERGENCE VALUE  =   750.5      CRITERION=  0.3381    
    EQUIL ITER   6 COMPLETED.  NEW TRIANG MATRIX.  MAX DOF INC= -0.9897E-01
     DISP CONVERGENCE VALUE   =  0.8814E-01  CRITERION=  0.4204E-01
     LINE SEARCH PARAMETER =  0.8906     SCALED MAX DOF INC = -0.8814E-01
     FORCE CONVERGENCE VALUE  =   413.3      CRITERION=  0.2563    
    EQUIL ITER   7 COMPLETED.  NEW TRIANG MATRIX.  MAX DOF INC= -0.3260E-01
     DISP CONVERGENCE VALUE   =  0.3260E-01  CRITERION=  0.4290E-01 <<< CONVERGED
     LINE SEARCH PARAMETER =   1.000     SCALED MAX DOF INC = -0.3260E-01
     FORCE CONVERGENCE VALUE  =   66.41      CRITERION=  0.1777    
    EQUIL ITER   8 COMPLETED.  NEW TRIANG MATRIX.  MAX DOF INC= -0.3773E-01
     DISP CONVERGENCE VALUE   =  0.3773E-01  CRITERION=  0.4378E-01 <<< CONVERGED
     LINE SEARCH PARAMETER =   1.000     SCALED MAX DOF INC = -0.3773E-01
     FORCE CONVERGENCE VALUE  =   10.77      CRITERION=  0.1105    
    EQUIL ITER   9 COMPLETED.  NEW TRIANG MATRIX.  MAX DOF INC= -0.1556E-01
     DISP CONVERGENCE VALUE   =  0.1556E-01  CRITERION=  0.4467E-01 <<< CONVERGED
     LINE SEARCH PARAMETER =   1.000     SCALED MAX DOF INC = -0.1556E-01
     FORCE CONVERGENCE VALUE  =   9.882      CRITERION=  0.1676    
    EQUIL ITER  10 COMPLETED.  NEW TRIANG MATRIX.  MAX DOF INC= -0.2587E-02
     DISP CONVERGENCE VALUE   =  0.2329E-02  CRITERION=  0.4558E-01 <<< CONVERGED
     LINE SEARCH PARAMETER =  0.9002     SCALED MAX DOF INC = -0.2329E-02
     FORCE CONVERGENCE VALUE  =   2.837      CRITERION=  0.1615    
    EQUIL ITER  11 COMPLETED.  NEW TRIANG MATRIX.  MAX DOF INC=  0.7900E-03
     DISP CONVERGENCE VALUE   =  0.7900E-03  CRITERION=  0.4651E-01 <<< CONVERGED
     LINE SEARCH PARAMETER =   1.000     SCALED MAX DOF INC =  0.7900E-03
     FORCE CONVERGENCE VALUE  =  0.8491      CRITERION=  0.1667    
    EQUIL ITER  12 COMPLETED.  NEW TRIANG MATRIX.  MAX DOF INC=  0.7113E-03
     DISP CONVERGENCE VALUE   =  0.7113E-03  CRITERION=  0.4746E-01 <<< CONVERGED
     LINE SEARCH PARAMETER =   1.000     SCALED MAX DOF INC =  0.7113E-03
     FORCE CONVERGENCE VALUE  =  0.6155      CRITERION=  0.1727    
    EQUIL ITER  13 COMPLETED.  NEW TRIANG MATRIX.  MAX DOF INC=  0.4168E-04
     DISP CONVERGENCE VALUE   =  0.3886E-04  CRITERION=  0.4843E-01 <<< CONVERGED
     LINE SEARCH PARAMETER =  0.9322     SCALED MAX DOF INC =  0.3886E-04
     FORCE CONVERGENCE VALUE  =  0.8142E-01  CRITERION=  0.1765     <<< CONVERGED
    >>> SOLUTION CONVERGED AFTER EQUILIBRIUM ITERATION  13

   *** ELEMENT RESULT CALCULATION TIMES
     TYPE    NUMBER   ENAME      TOTAL CP  AVE CP

        1       647  PLANE183      0.031   0.000048
        2       515  PLANE183      0.031   0.000061
        3       100  CONTA172      0.000   0.000000

   *** NODAL LOAD CALCULATION TIMES
     TYPE    NUMBER   ENAME      TOTAL CP  AVE CP

        1       647  PLANE183      0.000   0.000000
        2       515  PLANE183      0.000   0.000000
        3       100  CONTA172      0.000   0.000000
 *** LOAD STEP     1   SUBSTEP     1  COMPLETED.    CUM ITER =     15
 *** TIME =  0.700000E-02     TIME INC =  0.700000E-02
 *** AUTO STEP TIME:  NEXT TIME INC = 0.70000E-02  UNCHANGED

     FORCE CONVERGENCE VALUE  =   20.87      CRITERION=  0.1357    
     DISP CONVERGENCE VALUE   =  0.1582      CRITERION=  0.3724E-01
    EQUIL ITER   1 COMPLETED.  NEW TRIANG MATRIX.  MAX DOF INC= -0.1582    
     DISP CONVERGENCE VALUE   =  0.7908E-02  CRITERION=  0.3800E-01 <<< CONVERGED
     LINE SEARCH PARAMETER =  0.5000E-01 SCALED MAX DOF INC = -0.7908E-02
     FORCE CONVERGENCE VALUE  =   105.3      CRITERION=  0.1316    
    EQUIL ITER   2 COMPLETED.  NEW TRIANG MATRIX.  MAX DOF INC=  0.1891E-01
     DISP CONVERGENCE VALUE   =  0.1358E-01  CRITERION=  0.3878E-01 <<< CONVERGED
     LINE SEARCH PARAMETER =  0.7181     SCALED MAX DOF INC =  0.1358E-01
     FORCE CONVERGENCE VALUE  =   23.39      CRITERION=  0.1596    
    EQUIL ITER   3 COMPLETED.  NEW TRIANG MATRIX.  MAX DOF INC= -0.1119E-01
     DISP CONVERGENCE VALUE   =  0.1119E-01  CRITERION=  0.3957E-01 <<< CONVERGED
     LINE SEARCH PARAMETER =   1.000     SCALED MAX DOF INC = -0.1119E-01
     FORCE CONVERGENCE VALUE  =   12.35      CRITERION=  0.1450    
    EQUIL ITER   4 COMPLETED.  NEW TRIANG MATRIX.  MAX DOF INC= -0.2520E-02
     DISP CONVERGENCE VALUE   =  0.2520E-02  CRITERION=  0.4038E-01 <<< CONVERGED
     LINE SEARCH PARAMETER =   1.000     SCALED MAX DOF INC = -0.2520E-02
     FORCE CONVERGENCE VALUE  =   2.636      CRITERION=  0.1444    
    EQUIL ITER   5 COMPLETED.  NEW TRIANG MATRIX.  MAX DOF INC= -0.2447E-02
     DISP CONVERGENCE VALUE   =  0.2447E-02  CRITERION=  0.4120E-01 <<< CONVERGED
     LINE SEARCH PARAMETER =   1.000     SCALED MAX DOF INC = -0.2447E-02
     FORCE CONVERGENCE VALUE  =   2.238      CRITERION=  0.1434    
    EQUIL ITER   6 COMPLETED.  NEW TRIANG MATRIX.  MAX DOF INC= -0.3208E-03
     DISP CONVERGENCE VALUE   =  0.3208E-03  CRITERION=  0.4204E-01 <<< CONVERGED
     LINE SEARCH PARAMETER =   1.000     SCALED MAX DOF INC = -0.3208E-03
     FORCE CONVERGENCE VALUE  =  0.3742      CRITERION=  0.1458    
    EQUIL ITER   7 COMPLETED.  NEW TRIANG MATRIX.  MAX DOF INC= -0.3196E-03
     DISP CONVERGENCE VALUE   =  0.3196E-03  CRITERION=  0.4290E-01 <<< CONVERGED
     LINE SEARCH PARAMETER =   1.000     SCALED MAX DOF INC = -0.3196E-03
     FORCE CONVERGENCE VALUE  =  0.3003      CRITERION=  0.1482    
    EQUIL ITER   8 COMPLETED.  NEW TRIANG MATRIX.  MAX DOF INC= -0.4307E-04
     DISP CONVERGENCE VALUE   =  0.4307E-04  CRITERION=  0.4378E-01 <<< CONVERGED
     LINE SEARCH PARAMETER =   1.000     SCALED MAX DOF INC = -0.4307E-04
     FORCE CONVERGENCE VALUE  =  0.5042E-01  CRITERION=  0.1512     <<< CONVERGED
    >>> SOLUTION CONVERGED AFTER EQUILIBRIUM ITERATION   8
 *** LOAD STEP     1   SUBSTEP     2  COMPLETED.    CUM ITER =     23
 *** TIME =  0.140000E-01     TIME INC =  0.700000E-02
 *** AUTO TIME STEP:  NEXT TIME INC = 0.10500E-01  INCREASED (FACTOR = 1.5000)

     FORCE CONVERGENCE VALUE  =   39.77      CRITERION=  0.2198    
     DISP CONVERGENCE VALUE   =  0.2668      CRITERION=  0.3724E-01
    EQUIL ITER   1 COMPLETED.  NEW TRIANG MATRIX.  MAX DOF INC= -0.2668    

 *** WARNING ***                         CP =       3.562   TIME= 08:57:31
 Contact element 1395 (real ID 4) status changes abruptly from contact   
 (with target element 1166) -> no-contact.                               
     DISP CONVERGENCE VALUE   =  0.1334E-01  CRITERION=  0.3800E-01 <<< CONVERGED
     LINE SEARCH PARAMETER =  0.5000E-01 SCALED MAX DOF INC = -0.1334E-01
     FORCE CONVERGENCE VALUE  =   62.78      CRITERION=  0.2131    
    EQUIL ITER   2 COMPLETED.  NEW TRIANG MATRIX.  MAX DOF INC=  0.6819E-02
     DISP CONVERGENCE VALUE   =  0.6058E-02  CRITERION=  0.3878E-01 <<< CONVERGED
     LINE SEARCH PARAMETER =  0.8884     SCALED MAX DOF INC =  0.6058E-02
     FORCE CONVERGENCE VALUE  =   10.27      CRITERION=  0.2249    
    EQUIL ITER   3 COMPLETED.  NEW TRIANG MATRIX.  MAX DOF INC= -0.4704E-02
     DISP CONVERGENCE VALUE   =  0.4704E-02  CRITERION=  0.3957E-01 <<< CONVERGED
     LINE SEARCH PARAMETER =   1.000     SCALED MAX DOF INC = -0.4704E-02
     FORCE CONVERGENCE VALUE  =   3.583      CRITERION=  0.2222    
    EQUIL ITER   4 COMPLETED.  NEW TRIANG MATRIX.  MAX DOF INC= -0.1704E-02
     DISP CONVERGENCE VALUE   =  0.1704E-02  CRITERION=  0.4038E-01 <<< CONVERGED
     LINE SEARCH PARAMETER =   1.000     SCALED MAX DOF INC = -0.1704E-02
     FORCE CONVERGENCE VALUE  =   1.475      CRITERION=  0.2236    
    EQUIL ITER   5 COMPLETED.  NEW TRIANG MATRIX.  MAX DOF INC= -0.2249E-03
     DISP CONVERGENCE VALUE   =  0.2249E-03  CRITERION=  0.4120E-01 <<< CONVERGED
     LINE SEARCH PARAMETER =   1.000     SCALED MAX DOF INC = -0.2249E-03
     FORCE CONVERGENCE VALUE  =  0.2251      CRITERION=  0.2277     <<< CONVERGED
    >>> SOLUTION CONVERGED AFTER EQUILIBRIUM ITERATION   5
 *** LOAD STEP     1   SUBSTEP     3  COMPLETED.    CUM ITER =     28
 *** TIME =  0.245000E-01     TIME INC =  0.105000E-01
 *** AUTO TIME STEP:  NEXT TIME INC = 0.15750E-01  INCREASED (FACTOR = 1.5000)

     FORCE CONVERGENCE VALUE  =   58.42      CRITERION=  0.3217    
     DISP CONVERGENCE VALUE   =  0.4016      CRITERION=  0.3724E-01
    EQUIL ITER   1 COMPLETED.  NEW TRIANG MATRIX.  MAX DOF INC= -0.4016    

 *** WARNING ***                         CP =       4.141   TIME= 08:57:32
 Contact element 1391 (real ID 4) status changes abruptly from           
 no-contact -> contact (with target element 1210).                       
     DISP CONVERGENCE VALUE   =  0.4393E-01  CRITERION=  0.3800E-01
     LINE SEARCH PARAMETER =  0.1094     SCALED MAX DOF INC = -0.4393E-01
     THERE IS TOO MUCH PENETRATION AT      2 CONTACT POINTS OF THE 2D CONTACT ELEMENTS
     FORCE CONVERGENCE VALUE  =   1732.      CRITERION=  0.2922    
    EQUIL ITER   2 COMPLETED.  NEW TRIANG MATRIX.  MAX DOF INC=  0.3964    
     DISP CONVERGENCE VALUE   =  0.2270      CRITERION=  0.3878E-01
     LINE SEARCH PARAMETER =  0.5726     SCALED MAX DOF INC =  0.2270    
     FORCE CONVERGENCE VALUE  =   888.2      CRITERION=  0.7687    
    EQUIL ITER   3 COMPLETED.  NEW TRIANG MATRIX.  MAX DOF INC= -0.2844E-01
     DISP CONVERGENCE VALUE   =  0.2844E-01  CRITERION=  0.3957E-01 <<< CONVERGED
     LINE SEARCH PARAMETER =   1.000     SCALED MAX DOF INC = -0.2844E-01
     FORCE CONVERGENCE VALUE  =   101.1      CRITERION=  0.7655    
    EQUIL ITER   4 COMPLETED.  NEW TRIANG MATRIX.  MAX DOF INC= -0.2242    
     DISP CONVERGENCE VALUE   =  0.2242      CRITERION=  0.4038E-01
     LINE SEARCH PARAMETER =   1.000     SCALED MAX DOF INC = -0.2242    
     FORCE CONVERGENCE VALUE  =   100.9      CRITERION=  0.3490    
    EQUIL ITER   5 COMPLETED.  NEW TRIANG MATRIX.  MAX DOF INC=  0.1341E-01
     DISP CONVERGENCE VALUE   =  0.1325E-01  CRITERION=  0.4120E-01 <<< CONVERGED
     LINE SEARCH PARAMETER =  0.9882     SCALED MAX DOF INC =  0.1325E-01
     FORCE CONVERGENCE VALUE  =   6.386      CRITERION=  0.3480    
    EQUIL ITER   6 COMPLETED.  NEW TRIANG MATRIX.  MAX DOF INC= -0.8386E-02
     DISP CONVERGENCE VALUE   =  0.8386E-02  CRITERION=  0.4204E-01 <<< CONVERGED
     LINE SEARCH PARAMETER =   1.000     SCALED MAX DOF INC = -0.8386E-02
     FORCE CONVERGENCE VALUE  =   4.285      CRITERION=  0.3385    
    EQUIL ITER   7 COMPLETED.  NEW TRIANG MATRIX.  MAX DOF INC= -0.6976E-03
     DISP CONVERGENCE VALUE   =  0.6976E-03  CRITERION=  0.4290E-01 <<< CONVERGED
     LINE SEARCH PARAMETER =   1.000     SCALED MAX DOF INC = -0.6976E-03
     FORCE CONVERGENCE VALUE  =  0.5057      CRITERION=  0.3440    
    EQUIL ITER   8 COMPLETED.  NEW TRIANG MATRIX.  MAX DOF INC= -0.3204E-03
     DISP CONVERGENCE VALUE   =  0.3204E-03  CRITERION=  0.4378E-01 <<< CONVERGED
     LINE SEARCH PARAMETER =   1.000     SCALED MAX DOF INC = -0.3204E-03
     FORCE CONVERGENCE VALUE  =  0.1835      CRITERION=  0.3503     <<< CONVERGED
    >>> SOLUTION CONVERGED AFTER EQUILIBRIUM ITERATION   8
 *** LOAD STEP     1   SUBSTEP     4  COMPLETED.    CUM ITER =     36
 *** TIME =  0.402500E-01     TIME INC =  0.157500E-01
 *** AUTO STEP TIME:  NEXT TIME INC = 0.15750E-01  UNCHANGED

     FORCE CONVERGENCE VALUE  =   62.69      CRITERION=  0.3904    
     DISP CONVERGENCE VALUE   =  0.4992      CRITERION=  0.3724E-01
    EQUIL ITER   1 COMPLETED.  NEW TRIANG MATRIX.  MAX DOF INC= -0.4992    

 *** WARNING ***                         CP =       5.078   TIME= 08:57:33
 Contact element 1390 (real ID 4) status changes abruptly from           
 no-contact -> contact (with target element 1208).                       
     DISP CONVERGENCE VALUE   =  0.2496E-01  CRITERION=  0.3800E-01 <<< CONVERGED
     LINE SEARCH PARAMETER =  0.5000E-01 SCALED MAX DOF INC = -0.2496E-01
     FORCE CONVERGENCE VALUE  =   84.96      CRITERION=  0.3784    
    EQUIL ITER   2 COMPLETED.  NEW TRIANG MATRIX.  MAX DOF INC=  0.7440E-02
     DISP CONVERGENCE VALUE   =  0.7120E-02  CRITERION=  0.3878E-01 <<< CONVERGED
     LINE SEARCH PARAMETER =  0.9570     SCALED MAX DOF INC =  0.7120E-02
     FORCE CONVERGENCE VALUE  =   8.669      CRITERION=  0.3907    
    EQUIL ITER   3 COMPLETED.  NEW TRIANG MATRIX.  MAX DOF INC= -0.4589E-02
     DISP CONVERGENCE VALUE   =  0.4589E-02  CRITERION=  0.3957E-01 <<< CONVERGED
     LINE SEARCH PARAMETER =   1.000     SCALED MAX DOF INC = -0.4589E-02
     FORCE CONVERGENCE VALUE  =   2.308      CRITERION=  0.3902    
    EQUIL ITER   4 COMPLETED.  NEW TRIANG MATRIX.  MAX DOF INC= -0.2315E-03
     DISP CONVERGENCE VALUE   =  0.2315E-03  CRITERION=  0.4038E-01 <<< CONVERGED
     LINE SEARCH PARAMETER =   1.000     SCALED MAX DOF INC = -0.2315E-03
     FORCE CONVERGENCE VALUE  =  0.2311      CRITERION=  0.3979     <<< CONVERGED
    >>> SOLUTION CONVERGED AFTER EQUILIBRIUM ITERATION   4
 *** LOAD STEP     1   SUBSTEP     5  COMPLETED.    CUM ITER =     40
 *** TIME =  0.560000E-01     TIME INC =  0.157500E-01
 *** AUTO TIME STEP:  NEXT TIME INC = 0.20000E-01  INCREASED (FACTOR = 1.2698)

     FORCE CONVERGENCE VALUE  =   88.20      CRITERION=  0.4547    
     DISP CONVERGENCE VALUE   =  0.5944      CRITERION=  0.3724E-01
    EQUIL ITER   1 COMPLETED.  NEW TRIANG MATRIX.  MAX DOF INC= -0.5944    

 *** WARNING ***                         CP =       5.562   TIME= 08:57:34
 Contact element 1390 (real ID 4) status changes abruptly from           
 no-contact -> contact (with target element 1206).                       
     DISP CONVERGENCE VALUE   =  0.2972E-01  CRITERION=  0.3800E-01 <<< CONVERGED
     LINE SEARCH PARAMETER =  0.5000E-01 SCALED MAX DOF INC = -0.2972E-01
     FORCE CONVERGENCE VALUE  =   333.2      CRITERION=  0.4406    
    EQUIL ITER   2 COMPLETED.  NEW TRIANG MATRIX.  MAX DOF INC=  0.8102E-01
     DISP CONVERGENCE VALUE   =  0.5941E-01  CRITERION=  0.3878E-01
     LINE SEARCH PARAMETER =  0.7332     SCALED MAX DOF INC =  0.5941E-01
     FORCE CONVERGENCE VALUE  =   146.6      CRITERION=  0.5801    
    EQUIL ITER   3 COMPLETED.  NEW TRIANG MATRIX.  MAX DOF INC= -0.2556E-01
     DISP CONVERGENCE VALUE   =  0.2556E-01  CRITERION=  0.3957E-01 <<< CONVERGED
     LINE SEARCH PARAMETER =   1.000     SCALED MAX DOF INC = -0.2556E-01
     FORCE CONVERGENCE VALUE  =   22.19      CRITERION=  0.5434    
    EQUIL ITER   4 COMPLETED.  NEW TRIANG MATRIX.  MAX DOF INC= -0.3231E-01
     DISP CONVERGENCE VALUE   =  0.3231E-01  CRITERION=  0.4038E-01 <<< CONVERGED
     LINE SEARCH PARAMETER =   1.000     SCALED MAX DOF INC = -0.3231E-01
     FORCE CONVERGENCE VALUE  =   10.64      CRITERION=  0.4890    
    EQUIL ITER   5 COMPLETED.  NEW TRIANG MATRIX.  MAX DOF INC= -0.3397E-02
     DISP CONVERGENCE VALUE   =  0.3397E-02  CRITERION=  0.4120E-01 <<< CONVERGED
     LINE SEARCH PARAMETER =   1.000     SCALED MAX DOF INC = -0.3397E-02
     FORCE CONVERGENCE VALUE  =   1.847      CRITERION=  0.4900    
    EQUIL ITER   6 COMPLETED.  NEW TRIANG MATRIX.  MAX DOF INC= -0.1188E-02
     DISP CONVERGENCE VALUE   =  0.1188E-02  CRITERION=  0.4204E-01 <<< CONVERGED
     LINE SEARCH PARAMETER =   1.000     SCALED MAX DOF INC = -0.1188E-02
     FORCE CONVERGENCE VALUE  =  0.3830      CRITERION=  0.4977     <<< CONVERGED
    >>> SOLUTION CONVERGED AFTER EQUILIBRIUM ITERATION   6
 *** LOAD STEP     1   SUBSTEP     6  COMPLETED.    CUM ITER =     46
 *** TIME =  0.760000E-01     TIME INC =  0.200000E-01
 *** AUTO STEP TIME:  NEXT TIME INC = 0.20000E-01  UNCHANGED

     FORCE CONVERGENCE VALUE  =   74.97      CRITERION=  0.5148    
     DISP CONVERGENCE VALUE   =  0.2514E-01  CRITERION=  0.3724E-01 <<< CONVERGED
    EQUIL ITER   1 COMPLETED.  NEW TRIANG MATRIX.  MAX DOF INC= -0.2514E-01
     DISP CONVERGENCE VALUE   =  0.8718E-02  CRITERION=  0.3800E-01 <<< CONVERGED
     LINE SEARCH PARAMETER =  0.3467     SCALED MAX DOF INC = -0.8718E-02
     FORCE CONVERGENCE VALUE  =   58.86      CRITERION=  0.5250    
    EQUIL ITER   2 COMPLETED.  NEW TRIANG MATRIX.  MAX DOF INC=  0.1003E-01
     DISP CONVERGENCE VALUE   =  0.6809E-02  CRITERION=  0.3878E-01 <<< CONVERGED
     LINE SEARCH PARAMETER =  0.6788     SCALED MAX DOF INC =  0.6809E-02
     FORCE CONVERGENCE VALUE  =   34.97      CRITERION=  0.5513    
    EQUIL ITER   3 COMPLETED.  NEW TRIANG MATRIX.  MAX DOF INC=  0.4678E-02
     DISP CONVERGENCE VALUE   =  0.3235E-02  CRITERION=  0.3957E-01 <<< CONVERGED
     LINE SEARCH PARAMETER =  0.6915     SCALED MAX DOF INC =  0.3235E-02
     FORCE CONVERGENCE VALUE  =   11.38      CRITERION=  0.5693    
    EQUIL ITER   4 COMPLETED.  NEW TRIANG MATRIX.  MAX DOF INC= -0.4960E-02
     DISP CONVERGENCE VALUE   =  0.4960E-02  CRITERION=  0.4038E-01 <<< CONVERGED
     LINE SEARCH PARAMETER =   1.000     SCALED MAX DOF INC = -0.4960E-02
     FORCE CONVERGENCE VALUE  =   2.844      CRITERION=  0.5705    
    EQUIL ITER   5 COMPLETED.  NEW TRIANG MATRIX.  MAX DOF INC= -0.3395E-02
     DISP CONVERGENCE VALUE   =  0.3395E-02  CRITERION=  0.4120E-01 <<< CONVERGED
     LINE SEARCH PARAMETER =   1.000     SCALED MAX DOF INC = -0.3395E-02
     FORCE CONVERGENCE VALUE  =   2.852      CRITERION=  0.5747    
    EQUIL ITER   6 COMPLETED.  NEW TRIANG MATRIX.  MAX DOF INC= -0.2149E-03
     DISP CONVERGENCE VALUE   =  0.2141E-03  CRITERION=  0.4204E-01 <<< CONVERGED
     LINE SEARCH PARAMETER =  0.9963     SCALED MAX DOF INC = -0.2141E-03
     FORCE CONVERGENCE VALUE  =  0.2656      CRITERION=  0.5858     <<< CONVERGED
    >>> SOLUTION CONVERGED AFTER EQUILIBRIUM ITERATION   6
 *** LOAD STEP     1   SUBSTEP     7  COMPLETED.    CUM ITER =     52
 *** TIME =  0.960000E-01     TIME INC =  0.200000E-01
 *** AUTO STEP TIME:  NEXT TIME INC = 0.20000E-01  UNCHANGED

     FORCE CONVERGENCE VALUE  =   269.8      CRITERION=  0.5970    
     DISP CONVERGENCE VALUE   =  0.6100E-01  CRITERION=  0.3724E-01
    EQUIL ITER   1 COMPLETED.  NEW TRIANG MATRIX.  MAX DOF INC=  0.6100E-01
     DISP CONVERGENCE VALUE   =  0.4623E-01  CRITERION=  0.3800E-01
     LINE SEARCH PARAMETER =  0.7580     SCALED MAX DOF INC =  0.4623E-01
     FORCE CONVERGENCE VALUE  =   132.0      CRITERION=  0.7112    
    EQUIL ITER   2 COMPLETED.  NEW TRIANG MATRIX.  MAX DOF INC= -0.6998E-02
     DISP CONVERGENCE VALUE   =  0.6998E-02  CRITERION=  0.3878E-01 <<< CONVERGED
     LINE SEARCH PARAMETER =   1.000     SCALED MAX DOF INC = -0.6998E-02
     FORCE CONVERGENCE VALUE  =   15.58      CRITERION=  0.7246    
    EQUIL ITER   3 COMPLETED.  NEW TRIANG MATRIX.  MAX DOF INC= -0.4192E-01
     DISP CONVERGENCE VALUE   =  0.4192E-01  CRITERION=  0.3957E-01
     LINE SEARCH PARAMETER =   1.000     SCALED MAX DOF INC = -0.4192E-01
     FORCE CONVERGENCE VALUE  =   17.69      CRITERION=  0.6482    
    EQUIL ITER   4 COMPLETED.  NEW TRIANG MATRIX.  MAX DOF INC=  0.9301E-03
     DISP CONVERGENCE VALUE   =  0.9301E-03  CRITERION=  0.4038E-01 <<< CONVERGED
     LINE SEARCH PARAMETER =   1.000     SCALED MAX DOF INC =  0.9301E-03
     FORCE CONVERGENCE VALUE  =   1.661      CRITERION=  0.6608    
    EQUIL ITER   5 COMPLETED.  NEW TRIANG MATRIX.  MAX DOF INC= -0.3511E-02
     DISP CONVERGENCE VALUE   =  0.3511E-02  CRITERION=  0.4120E-01 <<< CONVERGED
     LINE SEARCH PARAMETER =   1.000     SCALED MAX DOF INC = -0.3511E-02
     FORCE CONVERGENCE VALUE  =   2.315      CRITERION=  0.6659    
    EQUIL ITER   6 COMPLETED.  NEW TRIANG MATRIX.  MAX DOF INC= -0.3652E-03
     DISP CONVERGENCE VALUE   =  0.3642E-03  CRITERION=  0.4204E-01 <<< CONVERGED
     LINE SEARCH PARAMETER =  0.9973     SCALED MAX DOF INC = -0.3642E-03
     FORCE CONVERGENCE VALUE  =  0.2984      CRITERION=  0.6785     <<< CONVERGED
    >>> SOLUTION CONVERGED AFTER EQUILIBRIUM ITERATION   6
 *** LOAD STEP     1   SUBSTEP     8  COMPLETED.    CUM ITER =     58
 *** TIME =  0.116000         TIME INC =  0.200000E-01
 *** AUTO STEP TIME:  NEXT TIME INC = 0.20000E-01  UNCHANGED

     FORCE CONVERGENCE VALUE  =   325.9      CRITERION=  0.6833    
     DISP CONVERGENCE VALUE   =  0.8744E-01  CRITERION=  0.3724E-01
    EQUIL ITER   1 COMPLETED.  NEW TRIANG MATRIX.  MAX DOF INC=  0.8744E-01
     DISP CONVERGENCE VALUE   =  0.6569E-01  CRITERION=  0.3800E-01
     LINE SEARCH PARAMETER =  0.7513     SCALED MAX DOF INC =  0.6569E-01
     FORCE CONVERGENCE VALUE  =   159.1      CRITERION=  0.8517    
    EQUIL ITER   2 COMPLETED.  NEW TRIANG MATRIX.  MAX DOF INC= -0.1400E-01
     DISP CONVERGENCE VALUE   =  0.1400E-01  CRITERION=  0.3878E-01 <<< CONVERGED
     LINE SEARCH PARAMETER =   1.000     SCALED MAX DOF INC = -0.1400E-01
     FORCE CONVERGENCE VALUE  =   17.35      CRITERION=  0.8531    
    EQUIL ITER   3 COMPLETED.  NEW TRIANG MATRIX.  MAX DOF INC= -0.5331E-01
     DISP CONVERGENCE VALUE   =  0.4939E-01  CRITERION=  0.3957E-01
     LINE SEARCH PARAMETER =  0.9265     SCALED MAX DOF INC = -0.4939E-01
     FORCE CONVERGENCE VALUE  =   29.00      CRITERION=  0.7509    
    EQUIL ITER   4 COMPLETED.  NEW TRIANG MATRIX.  MAX DOF INC=  0.1326E-02
     DISP CONVERGENCE VALUE   =  0.1326E-02  CRITERION=  0.4038E-01 <<< CONVERGED
     LINE SEARCH PARAMETER =   1.000     SCALED MAX DOF INC =  0.1326E-02
     FORCE CONVERGENCE VALUE  =   3.662      CRITERION=  0.7643    
    EQUIL ITER   5 COMPLETED.  NEW TRIANG MATRIX.  MAX DOF INC= -0.6849E-02
     DISP CONVERGENCE VALUE   =  0.6849E-02  CRITERION=  0.4120E-01 <<< CONVERGED
     LINE SEARCH PARAMETER =   1.000     SCALED MAX DOF INC = -0.6849E-02
     FORCE CONVERGENCE VALUE  =   4.669      CRITERION=  0.7621    
    EQUIL ITER   6 COMPLETED.  NEW TRIANG MATRIX.  MAX DOF INC=  0.5248E-03
     DISP CONVERGENCE VALUE   =  0.5248E-03  CRITERION=  0.4204E-01 <<< CONVERGED
     LINE SEARCH PARAMETER =   1.000     SCALED MAX DOF INC =  0.5248E-03
     FORCE CONVERGENCE VALUE  =  0.6199      CRITERION=  0.7762     <<< CONVERGED
    >>> SOLUTION CONVERGED AFTER EQUILIBRIUM ITERATION   6
 *** LOAD STEP     1   SUBSTEP     9  COMPLETED.    CUM ITER =     64
 *** TIME =  0.136000         TIME INC =  0.200000E-01
 *** AUTO STEP TIME:  NEXT TIME INC = 0.20000E-01  UNCHANGED

     FORCE CONVERGENCE VALUE  =   340.4      CRITERION=  0.7743    
     DISP CONVERGENCE VALUE   =  0.9614E-01  CRITERION=  0.3724E-01
    EQUIL ITER   1 COMPLETED.  NEW TRIANG MATRIX.  MAX DOF INC=  0.9614E-01
     DISP CONVERGENCE VALUE   =  0.7336E-01  CRITERION=  0.3800E-01
     LINE SEARCH PARAMETER =  0.7631     SCALED MAX DOF INC =  0.7336E-01
     FORCE CONVERGENCE VALUE  =   183.2      CRITERION=  0.9790    
    EQUIL ITER   2 COMPLETED.  NEW TRIANG MATRIX.  MAX DOF INC= -0.1327E-01
     DISP CONVERGENCE VALUE   =  0.1327E-01  CRITERION=  0.3878E-01 <<< CONVERGED
     LINE SEARCH PARAMETER =   1.000     SCALED MAX DOF INC = -0.1327E-01
     FORCE CONVERGENCE VALUE  =   20.16      CRITERION=  0.9845    
    EQUIL ITER   3 COMPLETED.  NEW TRIANG MATRIX.  MAX DOF INC= -0.6257E-01
     DISP CONVERGENCE VALUE   =  0.5321E-01  CRITERION=  0.3957E-01
     LINE SEARCH PARAMETER =  0.8504     SCALED MAX DOF INC = -0.5321E-01
     FORCE CONVERGENCE VALUE  =   40.19      CRITERION=  0.8622    
    EQUIL ITER   4 COMPLETED.  NEW TRIANG MATRIX.  MAX DOF INC= -0.2254E-02
     DISP CONVERGENCE VALUE   =  0.2254E-02  CRITERION=  0.4038E-01 <<< CONVERGED
     LINE SEARCH PARAMETER =   1.000     SCALED MAX DOF INC = -0.2254E-02
     FORCE CONVERGENCE VALUE  =   5.071      CRITERION=  0.8743    
    EQUIL ITER   5 COMPLETED.  NEW TRIANG MATRIX.  MAX DOF INC= -0.1092E-01
     DISP CONVERGENCE VALUE   =  0.1092E-01  CRITERION=  0.4120E-01 <<< CONVERGED
     LINE SEARCH PARAMETER =   1.000     SCALED MAX DOF INC = -0.1092E-01
     FORCE CONVERGENCE VALUE  =   10.00      CRITERION=  0.8623    
    EQUIL ITER   6 COMPLETED.  NEW TRIANG MATRIX.  MAX DOF INC=  0.7613E-03
     DISP CONVERGENCE VALUE   =  0.7613E-03  CRITERION=  0.4204E-01 <<< CONVERGED
     LINE SEARCH PARAMETER =   1.000     SCALED MAX DOF INC =  0.7613E-03
     FORCE CONVERGENCE VALUE  =   1.082      CRITERION=  0.8790    
    EQUIL ITER   7 COMPLETED.  NEW TRIANG MATRIX.  MAX DOF INC= -0.5112E-03
     DISP CONVERGENCE VALUE   =  0.5112E-03  CRITERION=  0.4290E-01 <<< CONVERGED
     LINE SEARCH PARAMETER =   1.000     SCALED MAX DOF INC = -0.5112E-03
     FORCE CONVERGENCE VALUE  =  0.5602      CRITERION=  0.8953     <<< CONVERGED
    >>> SOLUTION CONVERGED AFTER EQUILIBRIUM ITERATION   7
 *** LOAD STEP     1   SUBSTEP    10  COMPLETED.    CUM ITER =     71
 *** TIME =  0.156000         TIME INC =  0.200000E-01
 *** AUTO STEP TIME:  NEXT TIME INC = 0.20000E-01  UNCHANGED

     FORCE CONVERGENCE VALUE  =   350.2      CRITERION=  0.8670    
     DISP CONVERGENCE VALUE   =  0.1059      CRITERION=  0.3724E-01
    EQUIL ITER   1 COMPLETED.  NEW TRIANG MATRIX.  MAX DOF INC=  0.1059    
     DISP CONVERGENCE VALUE   =  0.8284E-01  CRITERION=  0.3800E-01
     LINE SEARCH PARAMETER =  0.7822     SCALED MAX DOF INC =  0.8284E-01
     FORCE CONVERGENCE VALUE  =   205.7      CRITERION=   1.111    
    EQUIL ITER   2 COMPLETED.  NEW TRIANG MATRIX.  MAX DOF INC= -0.1434E-01
     DISP CONVERGENCE VALUE   =  0.1434E-01  CRITERION=  0.3878E-01 <<< CONVERGED
     LINE SEARCH PARAMETER =   1.000     SCALED MAX DOF INC = -0.1434E-01
     FORCE CONVERGENCE VALUE  =   22.72      CRITERION=   1.120    
    EQUIL ITER   3 COMPLETED.  NEW TRIANG MATRIX.  MAX DOF INC= -0.7026E-01
     DISP CONVERGENCE VALUE   =  0.5518E-01  CRITERION=  0.3957E-01
     LINE SEARCH PARAMETER =  0.7854     SCALED MAX DOF INC = -0.5518E-01
     FORCE CONVERGENCE VALUE  =   46.88      CRITERION=  0.9816    
    EQUIL ITER   4 COMPLETED.  NEW TRIANG MATRIX.  MAX DOF INC= -0.4492E-02
     DISP CONVERGENCE VALUE   =  0.4492E-02  CRITERION=  0.4038E-01 <<< CONVERGED
     LINE SEARCH PARAMETER =   1.000     SCALED MAX DOF INC = -0.4492E-02
     FORCE CONVERGENCE VALUE  =   7.488      CRITERION=  0.9893    
    EQUIL ITER   5 COMPLETED.  NEW TRIANG MATRIX.  MAX DOF INC= -0.1473E-01
     DISP CONVERGENCE VALUE   =  0.1473E-01  CRITERION=  0.4120E-01 <<< CONVERGED
     LINE SEARCH PARAMETER =   1.000     SCALED MAX DOF INC = -0.1473E-01
     FORCE CONVERGENCE VALUE  =   7.904      CRITERION=  0.9669    
    EQUIL ITER   6 COMPLETED.  NEW TRIANG MATRIX.  MAX DOF INC=  0.8321E-03
     DISP CONVERGENCE VALUE   =  0.8321E-03  CRITERION=  0.4204E-01 <<< CONVERGED
     LINE SEARCH PARAMETER =   1.000     SCALED MAX DOF INC =  0.8321E-03
     FORCE CONVERGENCE VALUE  =  0.8405      CRITERION=  0.9860     <<< CONVERGED
    >>> SOLUTION CONVERGED AFTER EQUILIBRIUM ITERATION   6
 *** LOAD STEP     1   SUBSTEP    11  COMPLETED.    CUM ITER =     77
 *** TIME =  0.176000         TIME INC =  0.200000E-01
 *** AUTO STEP TIME:  NEXT TIME INC = 0.20000E-01  UNCHANGED

     FORCE CONVERGENCE VALUE  =   390.7      CRITERION=  0.9697    
     DISP CONVERGENCE VALUE   =  0.1207      CRITERION=  0.3724E-01
    EQUIL ITER   1 COMPLETED.  NEW TRIANG MATRIX.  MAX DOF INC=  0.1207    
     DISP CONVERGENCE VALUE   =  0.9929E-01  CRITERION=  0.3800E-01
     LINE SEARCH PARAMETER =  0.8227     SCALED MAX DOF INC =  0.9929E-01
     FORCE CONVERGENCE VALUE  =   260.4      CRITERION=   1.277    
    EQUIL ITER   2 COMPLETED.  NEW TRIANG MATRIX.  MAX DOF INC= -0.1111E-01
     DISP CONVERGENCE VALUE   =  0.1111E-01  CRITERION=  0.3878E-01 <<< CONVERGED
     LINE SEARCH PARAMETER =   1.000     SCALED MAX DOF INC = -0.1111E-01
     FORCE CONVERGENCE VALUE  =   26.11      CRITERION=   1.305    
    EQUIL ITER   3 COMPLETED.  NEW TRIANG MATRIX.  MAX DOF INC= -0.9613E-01
     DISP CONVERGENCE VALUE   =  0.6615E-01  CRITERION=  0.3957E-01
     LINE SEARCH PARAMETER =  0.6882     SCALED MAX DOF INC = -0.6615E-01
     FORCE CONVERGENCE VALUE  =   65.98      CRITERION=   1.134    
    EQUIL ITER   4 COMPLETED.  NEW TRIANG MATRIX.  MAX DOF INC= -0.1278E-01
     DISP CONVERGENCE VALUE   =  0.1278E-01  CRITERION=  0.4038E-01 <<< CONVERGED
     LINE SEARCH PARAMETER =   1.000     SCALED MAX DOF INC = -0.1278E-01
     FORCE CONVERGENCE VALUE  =   12.75      CRITERION=   1.116    
    EQUIL ITER   5 COMPLETED.  NEW TRIANG MATRIX.  MAX DOF INC= -0.2000E-01
     DISP CONVERGENCE VALUE   =  0.1971E-01  CRITERION=  0.4120E-01 <<< CONVERGED
     LINE SEARCH PARAMETER =  0.9858     SCALED MAX DOF INC = -0.1971E-01
     FORCE CONVERGENCE VALUE  =   11.12      CRITERION=   1.079    
    EQUIL ITER   6 COMPLETED.  NEW TRIANG MATRIX.  MAX DOF INC=  0.1443E-02
     DISP CONVERGENCE VALUE   =  0.1443E-02  CRITERION=  0.4204E-01 <<< CONVERGED
     LINE SEARCH PARAMETER =   1.000     SCALED MAX DOF INC =  0.1443E-02
     FORCE CONVERGENCE VALUE  =   2.005      CRITERION=   1.101    
    EQUIL ITER   7 COMPLETED.  NEW TRIANG MATRIX.  MAX DOF INC= -0.1763E-02
     DISP CONVERGENCE VALUE   =  0.1763E-02  CRITERION=  0.4290E-01 <<< CONVERGED
     LINE SEARCH PARAMETER =   1.000     SCALED MAX DOF INC = -0.1763E-02
     FORCE CONVERGENCE VALUE  =   1.342      CRITERION=   1.118    
    EQUIL ITER   8 COMPLETED.  NEW TRIANG MATRIX.  MAX DOF INC=  0.3429E-03
     DISP CONVERGENCE VALUE   =  0.3429E-03  CRITERION=  0.4378E-01 <<< CONVERGED
     LINE SEARCH PARAMETER =   1.000     SCALED MAX DOF INC =  0.3429E-03
     FORCE CONVERGENCE VALUE  =  0.1198      CRITERION=   1.140     <<< CONVERGED
    >>> SOLUTION CONVERGED AFTER EQUILIBRIUM ITERATION   8
 *** LOAD STEP     1   SUBSTEP    12  COMPLETED.    CUM ITER =     85
 *** TIME =  0.196000         TIME INC =  0.200000E-01
 *** AUTO STEP TIME:  NEXT TIME INC = 0.20000E-01  UNCHANGED

     FORCE CONVERGENCE VALUE  =   425.5      CRITERION=   1.066    
     DISP CONVERGENCE VALUE   =  0.1485      CRITERION=  0.3724E-01
    EQUIL ITER   1 COMPLETED.  NEW TRIANG MATRIX.  MAX DOF INC=  0.1485    
     DISP CONVERGENCE VALUE   =  0.1402      CRITERION=  0.3800E-01
     LINE SEARCH PARAMETER =  0.9446     SCALED MAX DOF INC =  0.1402    
     FORCE CONVERGENCE VALUE  =   437.2      CRITERION=   1.508    
    EQUIL ITER   2 COMPLETED.  NEW TRIANG MATRIX.  MAX DOF INC=  0.3554E-01
     DISP CONVERGENCE VALUE   =  0.1876E-01  CRITERION=  0.3878E-01 <<< CONVERGED
     LINE SEARCH PARAMETER =  0.5277     SCALED MAX DOF INC =  0.1876E-01
     FORCE CONVERGENCE VALUE  =   203.0      CRITERION=   1.601    
    EQUIL ITER   3 COMPLETED.  NEW TRIANG MATRIX.  MAX DOF INC= -0.7228E-01
     DISP CONVERGENCE VALUE   =  0.7228E-01  CRITERION=  0.3957E-01
     LINE SEARCH PARAMETER =   1.000     SCALED MAX DOF INC = -0.7228E-01
     FORCE CONVERGENCE VALUE  =   134.7      CRITERION=   1.404    
    EQUIL ITER   4 COMPLETED.  NEW TRIANG MATRIX.  MAX DOF INC= -0.4022E-01
     DISP CONVERGENCE VALUE   =  0.4022E-01  CRITERION=  0.4038E-01 <<< CONVERGED
     LINE SEARCH PARAMETER =   1.000     SCALED MAX DOF INC = -0.4022E-01
     FORCE CONVERGENCE VALUE  =   50.43      CRITERION=   1.307    
    EQUIL ITER   5 COMPLETED.  NEW TRIANG MATRIX.  MAX DOF INC= -0.3248E-01
     DISP CONVERGENCE VALUE   =  0.2362E-01  CRITERION=  0.4120E-01 <<< CONVERGED
     LINE SEARCH PARAMETER =  0.7274     SCALED MAX DOF INC = -0.2362E-01
     FORCE CONVERGENCE VALUE  =   59.61      CRITERION=   1.252    
    EQUIL ITER   6 COMPLETED.  NEW TRIANG MATRIX.  MAX DOF INC= -0.8944E-02
     DISP CONVERGENCE VALUE   =  0.8944E-02  CRITERION=  0.4204E-01 <<< CONVERGED
     LINE SEARCH PARAMETER =   1.000     SCALED MAX DOF INC = -0.8944E-02
     FORCE CONVERGENCE VALUE  =   7.832      CRITERION=   1.255    
    EQUIL ITER   7 COMPLETED.  NEW TRIANG MATRIX.  MAX DOF INC= -0.1141E-01
     DISP CONVERGENCE VALUE   =  0.1141E-01  CRITERION=  0.4290E-01 <<< CONVERGED
     LINE SEARCH PARAMETER =   1.000     SCALED MAX DOF INC = -0.1141E-01
     FORCE CONVERGENCE VALUE  =   7.397      CRITERION=   1.242    
    EQUIL ITER   8 COMPLETED.  NEW TRIANG MATRIX.  MAX DOF INC=  0.1010E-02
     DISP CONVERGENCE VALUE   =  0.1010E-02  CRITERION=  0.4378E-01 <<< CONVERGED
     LINE SEARCH PARAMETER =   1.000     SCALED MAX DOF INC =  0.1010E-02
     FORCE CONVERGENCE VALUE  =   2.274      CRITERION=   1.264    
    EQUIL ITER   9 COMPLETED.  NEW TRIANG MATRIX.  MAX DOF INC=  0.8968E-03
     DISP CONVERGENCE VALUE   =  0.8968E-03  CRITERION=  0.4467E-01 <<< CONVERGED
     LINE SEARCH PARAMETER =   1.000     SCALED MAX DOF INC =  0.8968E-03
     FORCE CONVERGENCE VALUE  =   1.038      CRITERION=   2.576     <<< CONVERGED
    >>> SOLUTION CONVERGED AFTER EQUILIBRIUM ITERATION   9
 *** LOAD STEP     1   SUBSTEP    13  COMPLETED.    CUM ITER =     94
 *** TIME =  0.216000         TIME INC =  0.200000E-01
 *** AUTO STEP TIME:  NEXT TIME INC = 0.20000E-01  UNCHANGED

     FORCE CONVERGENCE VALUE  =   488.3      CRITERION=   1.178    
     DISP CONVERGENCE VALUE   =  0.1808      CRITERION=  0.3724E-01
    EQUIL ITER   1 COMPLETED.  NEW TRIANG MATRIX.  MAX DOF INC=  0.1808    
     DISP CONVERGENCE VALUE   =  0.1808      CRITERION=  0.3800E-01
     LINE SEARCH PARAMETER =   1.000     SCALED MAX DOF INC =  0.1808    
     FORCE CONVERGENCE VALUE  =   794.2      CRITERION=   1.755    
    EQUIL ITER   2 COMPLETED.  NEW TRIANG MATRIX.  MAX DOF INC=  0.1512    
     DISP CONVERGENCE VALUE   =  0.5533E-01  CRITERION=  0.3878E-01
     LINE SEARCH PARAMETER =  0.3658     SCALED MAX DOF INC =  0.5533E-01
     FORCE CONVERGENCE VALUE  =   489.5      CRITERION=   1.971    
    EQUIL ITER   3 COMPLETED.  NEW TRIANG MATRIX.  MAX DOF INC= -0.2827E-01
     DISP CONVERGENCE VALUE   =  0.2827E-01  CRITERION=  0.3957E-01 <<< CONVERGED
     LINE SEARCH PARAMETER =   1.000     SCALED MAX DOF INC = -0.2827E-01
     FORCE CONVERGENCE VALUE  =   63.71      CRITERION=   1.964    
    EQUIL ITER   4 COMPLETED.  NEW TRIANG MATRIX.  MAX DOF INC= -0.2056    
     DISP CONVERGENCE VALUE   =  0.1044      CRITERION=  0.4038E-01
     LINE SEARCH PARAMETER =  0.5080     SCALED MAX DOF INC = -0.1044    
     FORCE CONVERGENCE VALUE  =   196.6      CRITERION=   1.652    
    EQUIL ITER   5 COMPLETED.  NEW TRIANG MATRIX.  MAX DOF INC= -0.2428E-01
     DISP CONVERGENCE VALUE   =  0.2428E-01  CRITERION=  0.4120E-01 <<< CONVERGED
     LINE SEARCH PARAMETER =   1.000     SCALED MAX DOF INC = -0.2428E-01
     FORCE CONVERGENCE VALUE  =   36.52      CRITERION=   1.608    
    EQUIL ITER   6 COMPLETED.  NEW TRIANG MATRIX.  MAX DOF INC= -0.8543E-01
     DISP CONVERGENCE VALUE   =  0.6008E-01  CRITERION=  0.4204E-01
     LINE SEARCH PARAMETER =  0.7033     SCALED MAX DOF INC = -0.6008E-01
     FORCE CONVERGENCE VALUE  =   71.22      CRITERION=   1.437    
    EQUIL ITER   7 COMPLETED.  NEW TRIANG MATRIX.  MAX DOF INC=  0.2776E-02
     DISP CONVERGENCE VALUE   =  0.2776E-02  CRITERION=  0.4290E-01 <<< CONVERGED
     LINE SEARCH PARAMETER =   1.000     SCALED MAX DOF INC =  0.2776E-02
     FORCE CONVERGENCE VALUE  =   8.861      CRITERION=   1.464    
    EQUIL ITER   8 COMPLETED.  NEW TRIANG MATRIX.  MAX DOF INC= -0.2850E-01
     DISP CONVERGENCE VALUE   =  0.2454E-01  CRITERION=  0.4378E-01 <<< CONVERGED
     LINE SEARCH PARAMETER =  0.8610     SCALED MAX DOF INC = -0.2454E-01
     FORCE CONVERGENCE VALUE  =   19.61      CRITERION=   1.410    
    EQUIL ITER   9 COMPLETED.  NEW TRIANG MATRIX.  MAX DOF INC=  0.1324E-02
     DISP CONVERGENCE VALUE   =  0.1324E-02  CRITERION=  0.4467E-01 <<< CONVERGED
     LINE SEARCH PARAMETER =   1.000     SCALED MAX DOF INC =  0.1324E-02
     FORCE CONVERGENCE VALUE  =   3.127      CRITERION=   2.871    
    EQUIL ITER  10 COMPLETED.  NEW TRIANG MATRIX.  MAX DOF INC= -0.4710E-02
     DISP CONVERGENCE VALUE   =  0.4710E-02  CRITERION=  0.4558E-01 <<< CONVERGED
     LINE SEARCH PARAMETER =   1.000     SCALED MAX DOF INC = -0.4710E-02
     FORCE CONVERGENCE VALUE  =   3.967      CRITERION=   2.896    
    EQUIL ITER  11 COMPLETED.  NEW TRIANG MATRIX.  MAX DOF INC=  0.4677E-03
     DISP CONVERGENCE VALUE   =  0.4677E-03  CRITERION=  0.4651E-01 <<< CONVERGED
     LINE SEARCH PARAMETER =   1.000     SCALED MAX DOF INC =  0.4677E-03
     FORCE CONVERGENCE VALUE  =  0.6436      CRITERION=   2.953     <<< CONVERGED
    >>> SOLUTION CONVERGED AFTER EQUILIBRIUM ITERATION  11
 *** LOAD STEP     1   SUBSTEP    14  COMPLETED.    CUM ITER =    105
 *** TIME =  0.236000         TIME INC =  0.200000E-01
 *** AUTO STEP TIME:  NEXT TIME INC = 0.20000E-01  UNCHANGED

     FORCE CONVERGENCE VALUE  =   547.2      CRITERION=   1.291    
     DISP CONVERGENCE VALUE   =  0.2194      CRITERION=  0.3724E-01
    EQUIL ITER   1 COMPLETED.  NEW TRIANG MATRIX.  MAX DOF INC=  0.2194    
     DISP CONVERGENCE VALUE   =  0.2194      CRITERION=  0.3800E-01
     LINE SEARCH PARAMETER =   1.000     SCALED MAX DOF INC =  0.2194    
     FORCE CONVERGENCE VALUE  =   1819.      CRITERION=   1.997    
    EQUIL ITER   2 COMPLETED.  NEW TRIANG MATRIX.  MAX DOF INC=  0.5393    
     DISP CONVERGENCE VALUE   =  0.2697E-01  CRITERION=  0.3878E-01 <<< CONVERGED
     LINE SEARCH PARAMETER =  0.5000E-01 SCALED MAX DOF INC =  0.2697E-01
     FORCE CONVERGENCE VALUE  =   1736.      CRITERION=   2.126    
    EQUIL ITER   3 COMPLETED.  NEW TRIANG MATRIX.  MAX DOF INC=  0.4937E-01
     DISP CONVERGENCE VALUE   =  0.3623E-01  CRITERION=  0.3957E-01 <<< CONVERGED
     LINE SEARCH PARAMETER =  0.7338     SCALED MAX DOF INC =  0.3623E-01
     FORCE CONVERGENCE VALUE  =   330.2      CRITERION=   2.240    
    EQUIL ITER   4 COMPLETED.  NEW TRIANG MATRIX.  MAX DOF INC= -0.7677E-01
     DISP CONVERGENCE VALUE   =  0.5849E-01  CRITERION=  0.4038E-01
     LINE SEARCH PARAMETER =  0.7619     SCALED MAX DOF INC = -0.5849E-01
     FORCE CONVERGENCE VALUE  =   197.3      CRITERION=   2.160    
    EQUIL ITER   5 COMPLETED.  NEW TRIANG MATRIX.  MAX DOF INC= -0.1643    
     DISP CONVERGENCE VALUE   =  0.1105      CRITERION=  0.4120E-01
     LINE SEARCH PARAMETER =  0.6723     SCALED MAX DOF INC = -0.1105    
     FORCE CONVERGENCE VALUE  =   288.4      CRITERION=   1.837    
    EQUIL ITER   6 COMPLETED.  NEW TRIANG MATRIX.  MAX DOF INC=  0.1554E-01
     DISP CONVERGENCE VALUE   =  0.9054E-02  CRITERION=  0.4204E-01 <<< CONVERGED
     LINE SEARCH PARAMETER =  0.5825     SCALED MAX DOF INC =  0.9054E-02
     FORCE CONVERGENCE VALUE  =   121.5      CRITERION=   1.901    
    EQUIL ITER   7 COMPLETED.  NEW TRIANG MATRIX.  MAX DOF INC= -0.6951E-01
     DISP CONVERGENCE VALUE   =  0.6951E-01  CRITERION=  0.4290E-01
     LINE SEARCH PARAMETER =   1.000     SCALED MAX DOF INC = -0.6951E-01
     FORCE CONVERGENCE VALUE  =   102.3      CRITERION=   1.699    
    EQUIL ITER   8 COMPLETED.  NEW TRIANG MATRIX.  MAX DOF INC= -0.1459E-01
     DISP CONVERGENCE VALUE   =  0.1459E-01  CRITERION=  0.4378E-01 <<< CONVERGED
     LINE SEARCH PARAMETER =   1.000     SCALED MAX DOF INC = -0.1459E-01
     FORCE CONVERGENCE VALUE  =   102.2      CRITERION=   1.676    
    EQUIL ITER   9 COMPLETED.  NEW TRIANG MATRIX.  MAX DOF INC= -0.3055E-01
     DISP CONVERGENCE VALUE   =  0.3055E-01  CRITERION=  0.4467E-01 <<< CONVERGED
     LINE SEARCH PARAMETER =   1.000     SCALED MAX DOF INC = -0.3055E-01
     FORCE CONVERGENCE VALUE  =   35.52      CRITERION=   3.219    
    EQUIL ITER  10 COMPLETED.  NEW TRIANG MATRIX.  MAX DOF INC= -0.6371E-02
     DISP CONVERGENCE VALUE   =  0.6371E-02  CRITERION=  0.4558E-01 <<< CONVERGED
     LINE SEARCH PARAMETER =   1.000     SCALED MAX DOF INC = -0.6371E-02
     FORCE CONVERGENCE VALUE  =   5.984      CRITERION=   3.247    
    EQUIL ITER  11 COMPLETED.  NEW TRIANG MATRIX.  MAX DOF INC= -0.9487E-02
     DISP CONVERGENCE VALUE   =  0.9487E-02  CRITERION=  0.4651E-01 <<< CONVERGED
     LINE SEARCH PARAMETER =   1.000     SCALED MAX DOF INC = -0.9487E-02
     FORCE CONVERGENCE VALUE  =   8.177      CRITERION=   3.243    
    EQUIL ITER  12 COMPLETED.  NEW TRIANG MATRIX.  MAX DOF INC=  0.6073E-03
     DISP CONVERGENCE VALUE   =  0.6073E-03  CRITERION=  0.4746E-01 <<< CONVERGED
     LINE SEARCH PARAMETER =   1.000     SCALED MAX DOF INC =  0.6073E-03
     FORCE CONVERGENCE VALUE  =   1.330      CRITERION=   3.309     <<< CONVERGED
    >>> SOLUTION CONVERGED AFTER EQUILIBRIUM ITERATION  12
 *** LOAD STEP     1   SUBSTEP    15  COMPLETED.    CUM ITER =    117
 *** TIME =  0.256000         TIME INC =  0.200000E-01
 *** AUTO STEP TIME:  NEXT TIME INC = 0.20000E-01  UNCHANGED

     FORCE CONVERGENCE VALUE  =   588.5      CRITERION=   1.415    
     DISP CONVERGENCE VALUE   =  0.2686      CRITERION=  0.3724E-01
    EQUIL ITER   1 COMPLETED.  NEW TRIANG MATRIX.  MAX DOF INC=  0.2686    
     DISP CONVERGENCE VALUE   =  0.1956      CRITERION=  0.3800E-01
     LINE SEARCH PARAMETER =  0.7283     SCALED MAX DOF INC =  0.1956    
     FORCE CONVERGENCE VALUE  =   1297.      CRITERION=   2.036    
    EQUIL ITER   2 COMPLETED.  NEW TRIANG MATRIX.  MAX DOF INC=  0.4161    
     DISP CONVERGENCE VALUE   =  0.5133E-01  CRITERION=  0.3878E-01
     LINE SEARCH PARAMETER =  0.1233     SCALED MAX DOF INC =  0.5133E-01
     FORCE CONVERGENCE VALUE  =   1277.      CRITERION=   2.243    
    EQUIL ITER   3 COMPLETED.  NEW TRIANG MATRIX.  MAX DOF INC=  0.3333    
     DISP CONVERGENCE VALUE   =  0.1667E-01  CRITERION=  0.3957E-01 <<< CONVERGED
     LINE SEARCH PARAMETER =  0.5000E-01 SCALED MAX DOF INC =  0.1667E-01
     FORCE CONVERGENCE VALUE  =   1167.      CRITERION=   2.347    
    EQUIL ITER   4 COMPLETED.  NEW TRIANG MATRIX.  MAX DOF INC= -0.7838    

 *** WARNING ***                         CP =      15.875   TIME= 08:57:46
 Contact element 1361 (real ID 4) status changes abruptly from           
 no-contact -> contact (with target element 1210).                       
     DISP CONVERGENCE VALUE   =  0.3919E-01  CRITERION=  0.4038E-01 <<< CONVERGED
     LINE SEARCH PARAMETER =  0.5000E-01 SCALED MAX DOF INC = -0.3919E-01
     FORCE CONVERGENCE VALUE  =   1007.      CRITERION=   2.267    
    EQUIL ITER   5 COMPLETED.  NEW TRIANG MATRIX.  MAX DOF INC=  0.2515    
     DISP CONVERGENCE VALUE   =  0.1258E-01  CRITERION=  0.4120E-01 <<< CONVERGED
     LINE SEARCH PARAMETER =  0.5000E-01 SCALED MAX DOF INC =  0.1258E-01
     FORCE CONVERGENCE VALUE  =   952.4      CRITERION=   2.356    
    EQUIL ITER   6 COMPLETED.  NEW TRIANG MATRIX.  MAX DOF INC=  0.2078    
     DISP CONVERGENCE VALUE   =  0.1039E-01  CRITERION=  0.4204E-01 <<< CONVERGED
     LINE SEARCH PARAMETER =  0.5000E-01 SCALED MAX DOF INC =  0.1039E-01
     FORCE CONVERGENCE VALUE  =   914.4      CRITERION=   2.442    
    EQUIL ITER   7 COMPLETED.  NEW TRIANG MATRIX.  MAX DOF INC=  0.1868E-01
     DISP CONVERGENCE VALUE   =  0.1573E-01  CRITERION=  0.4290E-01 <<< CONVERGED
     LINE SEARCH PARAMETER =  0.8418     SCALED MAX DOF INC =  0.1573E-01
     FORCE CONVERGENCE VALUE  =   158.2      CRITERION=   2.521    
    EQUIL ITER   8 COMPLETED.  NEW TRIANG MATRIX.  MAX DOF INC= -0.4509E-01
     DISP CONVERGENCE VALUE   =  0.3890E-01  CRITERION=  0.4378E-01 <<< CONVERGED
     LINE SEARCH PARAMETER =  0.8625     SCALED MAX DOF INC = -0.3890E-01
     FORCE CONVERGENCE VALUE  =   103.0      CRITERION=   2.490    
    EQUIL ITER   9 COMPLETED.  NEW TRIANG MATRIX.  MAX DOF INC= -0.2097    
     DISP CONVERGENCE VALUE   =  0.9764E-01  CRITERION=  0.4467E-01
     LINE SEARCH PARAMETER =  0.4657     SCALED MAX DOF INC = -0.9764E-01
     FORCE CONVERGENCE VALUE  =   214.6      CRITERION=   2.189    
    EQUIL ITER  10 COMPLETED.  NEW TRIANG MATRIX.  MAX DOF INC= -0.3112E-01
     DISP CONVERGENCE VALUE   =  0.3112E-01  CRITERION=  0.4558E-01 <<< CONVERGED
     LINE SEARCH PARAMETER =   1.000     SCALED MAX DOF INC = -0.3112E-01
     FORCE CONVERGENCE VALUE  =   44.11      CRITERION=   4.245    
    EQUIL ITER  11 COMPLETED.  NEW TRIANG MATRIX.  MAX DOF INC= -0.9265E-01
     DISP CONVERGENCE VALUE   =  0.6344E-01  CRITERION=  0.4651E-01
     LINE SEARCH PARAMETER =  0.6848     SCALED MAX DOF INC = -0.6344E-01
     FORCE CONVERGENCE VALUE  =   93.95      CRITERION=   1.931    
    EQUIL ITER  12 COMPLETED.  NEW TRIANG MATRIX.  MAX DOF INC=  0.3424E-02
     DISP CONVERGENCE VALUE   =  0.3284E-02  CRITERION=  0.4746E-01 <<< CONVERGED
     LINE SEARCH PARAMETER =  0.9590     SCALED MAX DOF INC =  0.3284E-02
     FORCE CONVERGENCE VALUE  =   10.76      CRITERION=   3.943    
    EQUIL ITER  13 COMPLETED.  NEW TRIANG MATRIX.  MAX DOF INC= -0.4128E-01
     DISP CONVERGENCE VALUE   =  0.3006E-01  CRITERION=  0.4843E-01 <<< CONVERGED
     LINE SEARCH PARAMETER =  0.7282     SCALED MAX DOF INC = -0.3006E-01
     FORCE CONVERGENCE VALUE  =   28.86      CRITERION=   3.797    
    EQUIL ITER  14 COMPLETED.  NEW TRIANG MATRIX.  MAX DOF INC= -0.4088E-02
     DISP CONVERGENCE VALUE   =  0.4088E-02  CRITERION=  0.4942E-01 <<< CONVERGED
     LINE SEARCH PARAMETER =   1.000     SCALED MAX DOF INC = -0.4088E-02
     FORCE CONVERGENCE VALUE  =   6.708      CRITERION=   3.842    
    EQUIL ITER  15 COMPLETED.  NEW TRIANG MATRIX.  MAX DOF INC= -0.9932E-02
     DISP CONVERGENCE VALUE   =  0.9881E-02  CRITERION=  0.5043E-01 <<< CONVERGED
     LINE SEARCH PARAMETER =  0.9949     SCALED MAX DOF INC = -0.9881E-02
     FORCE CONVERGENCE VALUE  =   8.240      CRITERION=   3.842    
    EQUIL ITER  16 COMPLETED.  NEW TRIANG MATRIX.  MAX DOF INC=  0.6732E-03
     DISP CONVERGENCE VALUE   =  0.6604E-03  CRITERION=  0.5146E-01 <<< CONVERGED
     LINE SEARCH PARAMETER =  0.9810     SCALED MAX DOF INC =  0.6604E-03
     FORCE CONVERGENCE VALUE  =   1.501      CRITERION=   3.921     <<< CONVERGED
    >>> SOLUTION CONVERGED AFTER EQUILIBRIUM ITERATION  16
 *** LOAD STEP     1   SUBSTEP    16  COMPLETED.    CUM ITER =    133
 *** TIME =  0.276000         TIME INC =  0.200000E-01
 *** AUTO STEP TIME:  NEXT TIME INC = 0.20000E-01  UNCHANGED

     FORCE CONVERGENCE VALUE  =   607.0      CRITERION=   1.540    
     DISP CONVERGENCE VALUE   =  0.2909      CRITERION=  0.3724E-01
    EQUIL ITER   1 COMPLETED.  NEW TRIANG MATRIX.  MAX DOF INC=  0.2909    
     DISP CONVERGENCE VALUE   =  0.2109      CRITERION=  0.3800E-01
     LINE SEARCH PARAMETER =  0.7250     SCALED MAX DOF INC =  0.2109    
     FORCE CONVERGENCE VALUE  =   1827.      CRITERION=   2.206    
    EQUIL ITER   2 COMPLETED.  NEW TRIANG MATRIX.  MAX DOF INC=  0.6510    
     DISP CONVERGENCE VALUE   =  0.3255E-01  CRITERION=  0.3878E-01 <<< CONVERGED
     LINE SEARCH PARAMETER =  0.5000E-01 SCALED MAX DOF INC =  0.3255E-01
     FORCE CONVERGENCE VALUE  =   1837.      CRITERION=   2.355    
    EQUIL ITER   3 COMPLETED.  NEW TRIANG MATRIX.  MAX DOF INC=  0.6064    
     DISP CONVERGENCE VALUE   =  0.3032E-01  CRITERION=  0.3957E-01 <<< CONVERGED
     LINE SEARCH PARAMETER =  0.5000E-01 SCALED MAX DOF INC =  0.3032E-01
     FORCE CONVERGENCE VALUE  =   1725.      CRITERION=   2.504    
    EQUIL ITER   4 COMPLETED.  NEW TRIANG MATRIX.  MAX DOF INC=  -1.015    

 *** WARNING ***                         CP =      18.141   TIME= 08:57:49
 Contact element 1360 (real ID 4) status changes abruptly from           
 no-contact -> contact (with target element 1207).                       
     DISP CONVERGENCE VALUE   =  0.5074E-01  CRITERION=  0.4038E-01
     LINE SEARCH PARAMETER =  0.5000E-01 SCALED MAX DOF INC = -0.5074E-01
     FORCE CONVERGENCE VALUE  =   1502.      CRITERION=   2.391    
    EQUIL ITER   5 COMPLETED.  NEW TRIANG MATRIX.  MAX DOF INC=  0.4754    
     DISP CONVERGENCE VALUE   =  0.2377E-01  CRITERION=  0.4120E-01 <<< CONVERGED
     LINE SEARCH PARAMETER =  0.5000E-01 SCALED MAX DOF INC =  0.2377E-01
     FORCE CONVERGENCE VALUE  =   1436.      CRITERION=   2.520    
    EQUIL ITER   6 COMPLETED.  NEW TRIANG MATRIX.  MAX DOF INC=  0.4219E-01
     DISP CONVERGENCE VALUE   =  0.3127E-01  CRITERION=  0.4204E-01 <<< CONVERGED
     LINE SEARCH PARAMETER =  0.7412     SCALED MAX DOF INC =  0.3127E-01
     FORCE CONVERGENCE VALUE  =   321.9      CRITERION=   2.635    
    EQUIL ITER   7 COMPLETED.  NEW TRIANG MATRIX.  MAX DOF INC= -0.7142E-01
     DISP CONVERGENCE VALUE   =  0.5302E-01  CRITERION=  0.4290E-01
     LINE SEARCH PARAMETER =  0.7423     SCALED MAX DOF INC = -0.5302E-01
     FORCE CONVERGENCE VALUE  =   163.1      CRITERION=   2.574    
    EQUIL ITER   8 COMPLETED.  NEW TRIANG MATRIX.  MAX DOF INC= -0.1677    
     DISP CONVERGENCE VALUE   =  0.1094      CRITERION=  0.4378E-01
     LINE SEARCH PARAMETER =  0.6528     SCALED MAX DOF INC = -0.1094    
     FORCE CONVERGENCE VALUE  =   281.9      CRITERION=   2.248    
    EQUIL ITER   9 COMPLETED.  NEW TRIANG MATRIX.  MAX DOF INC=  0.2414E-01
     DISP CONVERGENCE VALUE   =  0.1095E-01  CRITERION=  0.4467E-01 <<< CONVERGED
     LINE SEARCH PARAMETER =  0.4538     SCALED MAX DOF INC =  0.1095E-01
     FORCE CONVERGENCE VALUE  =   160.1      CRITERION=   4.663    
    EQUIL ITER  10 COMPLETED.  NEW TRIANG MATRIX.  MAX DOF INC= -0.5074E-01
     DISP CONVERGENCE VALUE   =  0.5074E-01  CRITERION=  0.4558E-01
     LINE SEARCH PARAMETER =   1.000     SCALED MAX DOF INC = -0.5074E-01
     FORCE CONVERGENCE VALUE  =   66.71      CRITERION=   2.195    
    EQUIL ITER  11 COMPLETED.  NEW TRIANG MATRIX.  MAX DOF INC= -0.5434E-01
     DISP CONVERGENCE VALUE   =  0.5114E-01  CRITERION=  0.4651E-01
     LINE SEARCH PARAMETER =  0.9411     SCALED MAX DOF INC = -0.5114E-01
     FORCE CONVERGENCE VALUE  =   70.28      CRITERION=   2.047    
    EQUIL ITER  12 COMPLETED.  NEW TRIANG MATRIX.  MAX DOF INC=  0.3186E-02
     DISP CONVERGENCE VALUE   =  0.3186E-02  CRITERION=  0.4746E-01 <<< CONVERGED
     LINE SEARCH PARAMETER =   1.000     SCALED MAX DOF INC =  0.3186E-02
     FORCE CONVERGENCE VALUE  =   8.254      CRITERION=   4.158    
    EQUIL ITER  13 COMPLETED.  NEW TRIANG MATRIX.  MAX DOF INC= -0.2949E-01
     DISP CONVERGENCE VALUE   =  0.2277E-01  CRITERION=  0.4843E-01 <<< CONVERGED
     LINE SEARCH PARAMETER =  0.7721     SCALED MAX DOF INC = -0.2277E-01
     FORCE CONVERGENCE VALUE  =   16.78      CRITERION=   4.072    
    EQUIL ITER  14 COMPLETED.  NEW TRIANG MATRIX.  MAX DOF INC= -0.1719E-02
     DISP CONVERGENCE VALUE   =  0.1719E-02  CRITERION=  0.4942E-01 <<< CONVERGED
     LINE SEARCH PARAMETER =   1.000     SCALED MAX DOF INC = -0.1719E-02
     FORCE CONVERGENCE VALUE  =   1.796      CRITERION=   4.142     <<< CONVERGED
    >>> SOLUTION CONVERGED AFTER EQUILIBRIUM ITERATION  14
 *** LOAD STEP     1   SUBSTEP    17  COMPLETED.    CUM ITER =    147
 *** TIME =  0.296000         TIME INC =  0.200000E-01
 *** AUTO STEP TIME:  NEXT TIME INC = 0.20000E-01  UNCHANGED

     FORCE CONVERGENCE VALUE  =   550.3      CRITERION=   1.703    
     DISP CONVERGENCE VALUE   =  0.2519      CRITERION=  0.3724E-01
    EQUIL ITER   1 COMPLETED.  NEW TRIANG MATRIX.  MAX DOF INC=  0.2519    
     DISP CONVERGENCE VALUE   =  0.1835      CRITERION=  0.3800E-01
     LINE SEARCH PARAMETER =  0.7282     SCALED MAX DOF INC =  0.1835    
     FORCE CONVERGENCE VALUE  =   1296.      CRITERION=   2.291    
    EQUIL ITER   2 COMPLETED.  NEW TRIANG MATRIX.  MAX DOF INC=  0.4013    
     DISP CONVERGENCE VALUE   =  0.4838E-01  CRITERION=  0.3878E-01
     LINE SEARCH PARAMETER =  0.1206     SCALED MAX DOF INC =  0.4838E-01
     FORCE CONVERGENCE VALUE  =   1184.      CRITERION=   2.492    
    EQUIL ITER   3 COMPLETED.  NEW TRIANG MATRIX.  MAX DOF INC=  0.3306    
     DISP CONVERGENCE VALUE   =  0.1653E-01  CRITERION=  0.3957E-01 <<< CONVERGED
     LINE SEARCH PARAMETER =  0.5000E-01 SCALED MAX DOF INC =  0.1653E-01
     FORCE CONVERGENCE VALUE  =   1071.      CRITERION=   2.598    
    EQUIL ITER   4 COMPLETED.  NEW TRIANG MATRIX.  MAX DOF INC= -0.7844    
     DISP CONVERGENCE VALUE   =  0.3922E-01  CRITERION=  0.4038E-01 <<< CONVERGED
     LINE SEARCH PARAMETER =  0.5000E-01 SCALED MAX DOF INC = -0.3922E-01
     FORCE CONVERGENCE VALUE  =   954.2      CRITERION=   2.521    
    EQUIL ITER   5 COMPLETED.  NEW TRIANG MATRIX.  MAX DOF INC=  0.2530    
     DISP CONVERGENCE VALUE   =  0.2829E-01  CRITERION=  0.4120E-01 <<< CONVERGED
     LINE SEARCH PARAMETER =  0.1118     SCALED MAX DOF INC =  0.2829E-01
     FORCE CONVERGENCE VALUE  =   815.7      CRITERION=   2.670    
    EQUIL ITER   6 COMPLETED.  NEW TRIANG MATRIX.  MAX DOF INC=  0.1602    
     DISP CONVERGENCE VALUE   =  0.8009E-02  CRITERION=  0.4204E-01 <<< CONVERGED
     LINE SEARCH PARAMETER =  0.5000E-01 SCALED MAX DOF INC =  0.8009E-02
     FORCE CONVERGENCE VALUE  =   759.7      CRITERION=   2.754    
    EQUIL ITER   7 COMPLETED.  NEW TRIANG MATRIX.  MAX DOF INC= -0.1793    
     DISP CONVERGENCE VALUE   =  0.5941E-01  CRITERION=  0.4290E-01
     LINE SEARCH PARAMETER =  0.3314     SCALED MAX DOF INC = -0.5941E-01
     FORCE CONVERGENCE VALUE  =   597.3      CRITERION=   2.631    
    EQUIL ITER   8 COMPLETED.  NEW TRIANG MATRIX.  MAX DOF INC=  0.1043    
     DISP CONVERGENCE VALUE   =  0.4118E-01  CRITERION=  0.4378E-01 <<< CONVERGED
     LINE SEARCH PARAMETER =  0.3950     SCALED MAX DOF INC =  0.4118E-01
     FORCE CONVERGENCE VALUE  =   388.0      CRITERION=   2.831    
    EQUIL ITER   9 COMPLETED.  NEW TRIANG MATRIX.  MAX DOF INC= -0.9608E-01
     DISP CONVERGENCE VALUE   =  0.9608E-01  CRITERION=  0.4467E-01
     LINE SEARCH PARAMETER =   1.000     SCALED MAX DOF INC = -0.9608E-01
     FORCE CONVERGENCE VALUE  =   203.0      CRITERION=   2.574    
    EQUIL ITER  10 COMPLETED.  NEW TRIANG MATRIX.  MAX DOF INC= -0.6811E-01
[...]
 *** LOAD STEP     2   SUBSTEP   134  COMPLETED.    CUM ITER =   1647
 *** TIME =   1.89886         TIME INC =  0.200000E-01
 *** AUTO STEP TIME:  NEXT TIME INC = 0.20000E-01  UNCHANGED

     FORCE CONVERGENCE VALUE  =   168.0      CRITERION=  0.4296    
     DISP CONVERGENCE VALUE   =  0.4302E-01  CRITERION=  0.3724E-01
    EQUIL ITER   1 COMPLETED.  NEW TRIANG MATRIX.  MAX DOF INC= -0.4302E-01
     DISP CONVERGENCE VALUE   =  0.2940E-01  CRITERION=  0.3800E-01 <<< CONVERGED
     LINE SEARCH PARAMETER =  0.6836     SCALED MAX DOF INC = -0.2940E-01
     FORCE CONVERGENCE VALUE  =   65.13      CRITERION=  0.3964    
    EQUIL ITER   2 COMPLETED.  NEW TRIANG MATRIX.  MAX DOF INC=  0.1312E-01
     DISP CONVERGENCE VALUE   =  0.1312E-01  CRITERION=  0.3878E-01 <<< CONVERGED
     LINE SEARCH PARAMETER =   1.000     SCALED MAX DOF INC =  0.1312E-01
     FORCE CONVERGENCE VALUE  =   7.906      CRITERION=  0.4306    
    EQUIL ITER   3 COMPLETED.  NEW TRIANG MATRIX.  MAX DOF INC=  0.1456E-01
     DISP CONVERGENCE VALUE   =  0.1367E-01  CRITERION=  0.3957E-01 <<< CONVERGED
     LINE SEARCH PARAMETER =  0.9391     SCALED MAX DOF INC =  0.1367E-01
     FORCE CONVERGENCE VALUE  =   4.146      CRITERION=  0.4647    
    EQUIL ITER   4 COMPLETED.  NEW TRIANG MATRIX.  MAX DOF INC=  0.4975E-03
     DISP CONVERGENCE VALUE   =  0.4975E-03  CRITERION=  0.4038E-01 <<< CONVERGED
     LINE SEARCH PARAMETER =   1.000     SCALED MAX DOF INC =  0.4975E-03
     FORCE CONVERGENCE VALUE  =  0.2226      CRITERION=  0.4741     <<< CONVERGED
    >>> SOLUTION CONVERGED AFTER EQUILIBRIUM ITERATION   4
 *** LOAD STEP     2   SUBSTEP   135  COMPLETED.    CUM ITER =   1651
 *** TIME =   1.91886         TIME INC =  0.200000E-01
 *** AUTO STEP TIME:  NEXT TIME INC = 0.20000E-01  UNCHANGED

     FORCE CONVERGENCE VALUE  =   79.59      CRITERION=  0.3648    
     DISP CONVERGENCE VALUE   =  0.1364E-01  CRITERION=  0.3724E-01 <<< CONVERGED
    EQUIL ITER   1 COMPLETED.  NEW TRIANG MATRIX.  MAX DOF INC= -0.1364E-01
     DISP CONVERGENCE VALUE   =  0.1221E-01  CRITERION=  0.3800E-01 <<< CONVERGED
     LINE SEARCH PARAMETER =  0.8956     SCALED MAX DOF INC = -0.1221E-01
     FORCE CONVERGENCE VALUE  =   17.30      CRITERION=  0.3597    
    EQUIL ITER   2 COMPLETED.  NEW TRIANG MATRIX.  MAX DOF INC=  0.6716E-02
     DISP CONVERGENCE VALUE   =  0.5246E-02  CRITERION=  0.3878E-01 <<< CONVERGED
     LINE SEARCH PARAMETER =  0.7811     SCALED MAX DOF INC =  0.5246E-02
     FORCE CONVERGENCE VALUE  =   12.11      CRITERION=  0.3760    
    EQUIL ITER   3 COMPLETED.  NEW TRIANG MATRIX.  MAX DOF INC=  0.8785E-03
     DISP CONVERGENCE VALUE   =  0.8785E-03  CRITERION=  0.3957E-01 <<< CONVERGED
     LINE SEARCH PARAMETER =   1.000     SCALED MAX DOF INC =  0.8785E-03
     FORCE CONVERGENCE VALUE  =   1.406      CRITERION=  0.3862    
    EQUIL ITER   4 COMPLETED.  NEW TRIANG MATRIX.  MAX DOF INC=  0.1466E-02
     DISP CONVERGENCE VALUE   =  0.1418E-02  CRITERION=  0.4038E-01 <<< CONVERGED
     LINE SEARCH PARAMETER =  0.9669     SCALED MAX DOF INC =  0.1418E-02
     FORCE CONVERGENCE VALUE  =   1.414      CRITERION=  0.3968    
    EQUIL ITER   5 COMPLETED.  NEW TRIANG MATRIX.  MAX DOF INC= -0.1097E-03
     DISP CONVERGENCE VALUE   =  0.1068E-03  CRITERION=  0.4120E-01 <<< CONVERGED
     LINE SEARCH PARAMETER =  0.9741     SCALED MAX DOF INC = -0.1068E-03
     FORCE CONVERGENCE VALUE  =  0.8896E-01  CRITERION=  0.4048     <<< CONVERGED
    >>> SOLUTION CONVERGED AFTER EQUILIBRIUM ITERATION   5
 *** LOAD STEP     2   SUBSTEP   136  COMPLETED.    CUM ITER =   1656
 *** TIME =   1.93886         TIME INC =  0.200000E-01
 *** AUTO STEP TIME:  NEXT TIME INC = 0.20000E-01  UNCHANGED

     FORCE CONVERGENCE VALUE  =   57.92      CRITERION=  0.2945    
     DISP CONVERGENCE VALUE   =  0.3991      CRITERION=  0.3724E-01
    EQUIL ITER   1 COMPLETED.  NEW TRIANG MATRIX.  MAX DOF INC= -0.3991    

 *** WARNING ***                         CP =     212.922   TIME= 09:01:42
 Contact element 1391 (real ID 4) status changes abruptly from           
 no-contact -> contact (with target element 1210).                       
     DISP CONVERGENCE VALUE   =  0.1995E-01  CRITERION=  0.3800E-01 <<< CONVERGED
     LINE SEARCH PARAMETER =  0.5000E-01 SCALED MAX DOF INC = -0.1995E-01
     FORCE CONVERGENCE VALUE  =   116.6      CRITERION=  0.2854    
    EQUIL ITER   2 COMPLETED.  NEW TRIANG MATRIX.  MAX DOF INC= -0.1290E-01
     DISP CONVERGENCE VALUE   =  0.1136E-01  CRITERION=  0.3878E-01 <<< CONVERGED
     LINE SEARCH PARAMETER =  0.8808     SCALED MAX DOF INC = -0.1136E-01
     FORCE CONVERGENCE VALUE  =   22.44      CRITERION=  0.2783    
    EQUIL ITER   3 COMPLETED.  NEW TRIANG MATRIX.  MAX DOF INC=  0.1184E-01
     DISP CONVERGENCE VALUE   =  0.8291E-02  CRITERION=  0.3957E-01 <<< CONVERGED
     LINE SEARCH PARAMETER =  0.7004     SCALED MAX DOF INC =  0.8291E-02
     FORCE CONVERGENCE VALUE  =   16.07      CRITERION=  0.2964    
    EQUIL ITER   4 COMPLETED.  NEW TRIANG MATRIX.  MAX DOF INC=  0.1316E-02
     DISP CONVERGENCE VALUE   =  0.1316E-02  CRITERION=  0.4038E-01 <<< CONVERGED
     LINE SEARCH PARAMETER =   1.000     SCALED MAX DOF INC =  0.1316E-02
     FORCE CONVERGENCE VALUE  =   2.025      CRITERION=  0.3060    
    EQUIL ITER   5 COMPLETED.  NEW TRIANG MATRIX.  MAX DOF INC=  0.2347E-02
     DISP CONVERGENCE VALUE   =  0.2173E-02  CRITERION=  0.4120E-01 <<< CONVERGED
     LINE SEARCH PARAMETER =  0.9258     SCALED MAX DOF INC =  0.2173E-02
     FORCE CONVERGENCE VALUE  =   2.565      CRITERION=  0.3161    
    EQUIL ITER   6 COMPLETED.  NEW TRIANG MATRIX.  MAX DOF INC= -0.1478E-03
     DISP CONVERGENCE VALUE   =  0.1373E-03  CRITERION=  0.4204E-01 <<< CONVERGED
     LINE SEARCH PARAMETER =  0.9288     SCALED MAX DOF INC = -0.1373E-03
     FORCE CONVERGENCE VALUE  =  0.1781      CRITERION=  0.3225     <<< CONVERGED
    >>> SOLUTION CONVERGED AFTER EQUILIBRIUM ITERATION   6
 *** LOAD STEP     2   SUBSTEP   137  COMPLETED.    CUM ITER =   1662
 *** TIME =   1.95886         TIME INC =  0.200000E-01
 *** AUTO STEP TIME:  NEXT TIME INC = 0.20000E-01  UNCHANGED

     FORCE CONVERGENCE VALUE  =   63.60      CRITERION=  0.2058    
     DISP CONVERGENCE VALUE   =  0.2646      CRITERION=  0.3724E-01
    EQUIL ITER   1 COMPLETED.  NEW TRIANG MATRIX.  MAX DOF INC= -0.2646    

 *** WARNING ***                         CP =     213.625   TIME= 09:01:43
 Contact element 1392 (real ID 4) status changes abruptly from           
 no-contact -> contact (with target element 1212).                       
     DISP CONVERGENCE VALUE   =  0.1937E-01  CRITERION=  0.3800E-01 <<< CONVERGED
     LINE SEARCH PARAMETER =  0.7321E-01 SCALED MAX DOF INC = -0.1937E-01
     FORCE CONVERGENCE VALUE  =   58.96      CRITERION=  0.1946    
    EQUIL ITER   2 COMPLETED.  NEW TRIANG MATRIX.  MAX DOF INC= -0.2452    
     DISP CONVERGENCE VALUE   =  0.2681E-01  CRITERION=  0.3878E-01 <<< CONVERGED
     LINE SEARCH PARAMETER =  0.1094     SCALED MAX DOF INC = -0.2681E-01
     FORCE CONVERGENCE VALUE  =   156.3      CRITERION=  0.1768    
    EQUIL ITER   3 COMPLETED.  NEW TRIANG MATRIX.  MAX DOF INC= -0.2970E-01
     DISP CONVERGENCE VALUE   =  0.2345E-01  CRITERION=  0.3957E-01 <<< CONVERGED
     LINE SEARCH PARAMETER =  0.7895     SCALED MAX DOF INC = -0.2345E-01
     FORCE CONVERGENCE VALUE  =   51.33      CRITERION=  0.1517    
    EQUIL ITER   4 COMPLETED.  NEW TRIANG MATRIX.  MAX DOF INC=  0.1206E-01
     DISP CONVERGENCE VALUE   =  0.1206E-01  CRITERION=  0.4038E-01 <<< CONVERGED
     LINE SEARCH PARAMETER =   1.000     SCALED MAX DOF INC =  0.1206E-01
     FORCE CONVERGENCE VALUE  =   11.14      CRITERION=  0.1739    
    EQUIL ITER   5 COMPLETED.  NEW TRIANG MATRIX.  MAX DOF INC=  0.8175E-02
     DISP CONVERGENCE VALUE   =  0.6265E-02  CRITERION=  0.4120E-01 <<< CONVERGED
     LINE SEARCH PARAMETER =  0.7663     SCALED MAX DOF INC =  0.6265E-02
     FORCE CONVERGENCE VALUE  =   7.638      CRITERION=  0.1870    
    EQUIL ITER   6 COMPLETED.  NEW TRIANG MATRIX.  MAX DOF INC=  0.9030E-03
     DISP CONVERGENCE VALUE   =  0.9030E-03  CRITERION=  0.4204E-01 <<< CONVERGED
     LINE SEARCH PARAMETER =   1.000     SCALED MAX DOF INC =  0.9030E-03
     FORCE CONVERGENCE VALUE  =  0.8048      CRITERION=  0.1927    
    EQUIL ITER   7 COMPLETED.  NEW TRIANG MATRIX.  MAX DOF INC=  0.1089E-02
     DISP CONVERGENCE VALUE   =  0.9460E-03  CRITERION=  0.4290E-01 <<< CONVERGED
     LINE SEARCH PARAMETER =  0.8689     SCALED MAX DOF INC =  0.9460E-03
     FORCE CONVERGENCE VALUE  =  0.7642      CRITERION=  0.1981    
    EQUIL ITER   8 COMPLETED.  NEW TRIANG MATRIX.  MAX DOF INC=  0.6233E-04
     DISP CONVERGENCE VALUE   =  0.5678E-04  CRITERION=  0.4378E-01 <<< CONVERGED
     LINE SEARCH PARAMETER =  0.9109     SCALED MAX DOF INC =  0.5678E-04
     FORCE CONVERGENCE VALUE  =  0.8190E-01  CRITERION=  0.2022     <<< CONVERGED
    >>> SOLUTION CONVERGED AFTER EQUILIBRIUM ITERATION   8
 *** LOAD STEP     2   SUBSTEP   138  COMPLETED.    CUM ITER =   1670
 *** TIME =   1.97886         TIME INC =  0.200000E-01
 *** AUTO TIME STEP:  NEXT TIME INC = 0.10568E-01  DECREASED (FACTOR = 0.5284)

     FORCE CONVERGENCE VALUE  =   35.50      CRITERION=  0.1122    
     DISP CONVERGENCE VALUE   =  0.1381      CRITERION=  0.3724E-01
    EQUIL ITER   1 COMPLETED.  NEW TRIANG MATRIX.  MAX DOF INC= -0.1381    
     DISP CONVERGENCE VALUE   =  0.9751E-02  CRITERION=  0.3800E-01 <<< CONVERGED
     LINE SEARCH PARAMETER =  0.7060E-01 SCALED MAX DOF INC = -0.9751E-02
     FORCE CONVERGENCE VALUE  =   33.00      CRITERION=  0.1064    
    EQUIL ITER   2 COMPLETED.  NEW TRIANG MATRIX.  MAX DOF INC= -0.1284    
     DISP CONVERGENCE VALUE   =  0.1404E-01  CRITERION=  0.3878E-01 <<< CONVERGED
     LINE SEARCH PARAMETER =  0.1094     SCALED MAX DOF INC = -0.1404E-01
     FORCE CONVERGENCE VALUE  =   80.13      CRITERION=  0.9668E-01
    EQUIL ITER   3 COMPLETED.  NEW TRIANG MATRIX.  MAX DOF INC= -0.1686E-01
     DISP CONVERGENCE VALUE   =  0.1397E-01  CRITERION=  0.3957E-01 <<< CONVERGED
     LINE SEARCH PARAMETER =  0.8285     SCALED MAX DOF INC = -0.1397E-01
     FORCE CONVERGENCE VALUE  =   26.64      CRITERION=  0.8279E-01
    EQUIL ITER   4 COMPLETED.  NEW TRIANG MATRIX.  MAX DOF INC=  0.7403E-02
     DISP CONVERGENCE VALUE   =  0.7403E-02  CRITERION=  0.4038E-01 <<< CONVERGED
     LINE SEARCH PARAMETER =   1.000     SCALED MAX DOF INC =  0.7403E-02
     FORCE CONVERGENCE VALUE  =   4.685      CRITERION=  0.9630E-01
    EQUIL ITER   5 COMPLETED.  NEW TRIANG MATRIX.  MAX DOF INC=  0.4607E-02
     DISP CONVERGENCE VALUE   =  0.4254E-02  CRITERION=  0.4120E-01 <<< CONVERGED
     LINE SEARCH PARAMETER =  0.9234     SCALED MAX DOF INC =  0.4254E-02
     FORCE CONVERGENCE VALUE  =   2.902      CRITERION=  0.1038    
    EQUIL ITER   6 COMPLETED.  NEW TRIANG MATRIX.  MAX DOF INC= -0.2176E-03
     DISP CONVERGENCE VALUE   =  0.2176E-03  CRITERION=  0.4204E-01 <<< CONVERGED
     LINE SEARCH PARAMETER =   1.000     SCALED MAX DOF INC = -0.2176E-03
     FORCE CONVERGENCE VALUE  =  0.3148      CRITERION=  0.1053    
    EQUIL ITER   7 COMPLETED.  NEW TRIANG MATRIX.  MAX DOF INC= -0.4987E-03
     DISP CONVERGENCE VALUE   =  0.4987E-03  CRITERION=  0.4290E-01 <<< CONVERGED
     LINE SEARCH PARAMETER =   1.000     SCALED MAX DOF INC = -0.4987E-03
     FORCE CONVERGENCE VALUE  =  0.3344      CRITERION=  0.1067    
    EQUIL ITER   8 COMPLETED.  NEW TRIANG MATRIX.  MAX DOF INC=  0.1944E-04
     DISP CONVERGENCE VALUE   =  0.1944E-04  CRITERION=  0.4378E-01 <<< CONVERGED
     LINE SEARCH PARAMETER =   1.000     SCALED MAX DOF INC =  0.1944E-04
     FORCE CONVERGENCE VALUE  =  0.3273E-01  CRITERION=  0.1089     <<< CONVERGED
    >>> SOLUTION CONVERGED AFTER EQUILIBRIUM ITERATION   8
 *** LOAD STEP     2   SUBSTEP   139  COMPLETED.    CUM ITER =   1678
 *** TIME =   1.98943         TIME INC =  0.105681E-01
 *** AUTO STEP TIME:  NEXT TIME INC = 0.10568E-01  UNCHANGED

     FORCE CONVERGENCE VALUE  =   29.52      CRITERION=  0.1349E-01
     DISP CONVERGENCE VALUE   =  0.1706E-01  CRITERION=  0.3724E-01 <<< CONVERGED
    EQUIL ITER   1 COMPLETED.  NEW TRIANG MATRIX.  MAX DOF INC= -0.1706E-01
     DISP CONVERGENCE VALUE   =  0.1706E-01  CRITERION=  0.3800E-01 <<< CONVERGED
     LINE SEARCH PARAMETER =   1.000     SCALED MAX DOF INC = -0.1706E-01
     FORCE CONVERGENCE VALUE  =  0.5553      CRITERION=  0.5206E-04
    EQUIL ITER   2 COMPLETED.  NEW TRIANG MATRIX.  MAX DOF INC= -0.1146E-03
     DISP CONVERGENCE VALUE   =  0.1146E-03  CRITERION=  0.3878E-01 <<< CONVERGED
     LINE SEARCH PARAMETER =   1.000     SCALED MAX DOF INC = -0.1146E-03
     FORCE CONVERGENCE VALUE  =  0.2935E-04  CRITERION=  0.5312E-04 <<< CONVERGED

 *** WARNING ***                         CP =     215.891   TIME= 09:01:46
 A reference force value times the tolerance is used by the              
 Newton-Raphson method for checking convergence.  The calculated         
 reference FORCE CONVERGENCE VALUE = 4.19130361E-04 is less than a       
 threshold.  This threshold is internally calculated.  You can           
 overwrite it by specifying MINREF on the CNVTOL command.  Check         
 results carefully.                                                      
    >>> SOLUTION CONVERGED AFTER EQUILIBRIUM ITERATION   2
 *** LOAD STEP     2   SUBSTEP   140  COMPLETED.    CUM ITER =   1680
 *** TIME =   2.00000         TIME INC =  0.105681E-01
 ****************************************************
 *************** FINISHED SOLVE FOR LS 2 *************

 *GET  _WALLASOL  FROM  ACTI  ITEM=TIME WALL  VALUE=  9.02944444    

 PRINTOUT RESUMED BY /GOP

 FINISH SOLUTION PROCESSING


 ***** ROUTINE COMPLETED *****  CP =       217.047



 *** ANSYS - ENGINEERING ANALYSIS SYSTEM  RELEASE 2021 R1          21.1     ***
 DISTRIBUTED ANSYS Mechanical Enterprise Academic Student      

 00000000  VERSION=WINDOWS x64   09:01:47  MAR 31, 2021 CP=    217.047

 Snap--Static Structural (A5)                                                  



          ***** ANSYS RESULTS INTERPRETATION (POST1) *****

 *** NOTE ***                            CP =     217.047   TIME= 09:01:47
 Reading results into the database (SET command) will update the current 
 displacement and force boundary conditions in the database with the     
 values from the results file for that load set.  Note that any          
 subsequent solutions will use these values unless action is taken to    
 either SAVE the current values or not overwrite them (/EXIT,NOSAVE).    

 Set Encoding of XML File to:ISO-8859-1

 Set Output of XML File to:
     PARM,     ,     ,     ,     ,     ,     ,     ,     ,     ,     ,     ,
         ,     ,     ,     ,     ,     ,     ,

 DATABASE WRITTEN ON FILE  parm.xml                                                                                                                                                                                                                                                            

 EXIT THE ANSYS POST1 DATABASE PROCESSOR


 ***** ROUTINE COMPLETED *****  CP =       217.078



 PRINTOUT RESUMED BY /GOP

 *GET  _WALLDONE  FROM  ACTI  ITEM=TIME WALL  VALUE=  9.02972222    

 PARAMETER _PREPTIME =     0.000000000    

 PARAMETER _SOLVTIME =     258.0000000    

 PARAMETER _POSTTIME =     1.000000000    

 PARAMETER _TOTALTIM =     259.0000000    

 *GET  _DLBRATIO  FROM  ACTI  ITEM=SOLU DLBR  VALUE=  1.12650602    

 *GET  _COMBTIME  FROM  ACTI  ITEM=SOLU COMB  VALUE=  1.08009680    
 --- Total number of nodes = 3732
 --- Total number of elements = 1466
 --- Element load balance ratio = 1.12650602
 --- Time to combine distributed files = 1.0800968

 EXIT ANSYS WITHOUT SAVING DATABASE


 NUMBER OF WARNING MESSAGES ENCOUNTERED=         69
 NUMBER OF ERROR   MESSAGES ENCOUNTERED=         88

+--------- D I S T R I B U T E D   A N S Y S   S T A T I S T I C S ------------+

Release: 2021 R1            Build: 21.1       Update: UP20201109   Platform: WINDOWS x64 
Date Run: 03/31/2021   Time: 09:01     Process ID: 9544
Operating System: Windows 10  (Build: 19041)

Processor Model: Intel(R) Core(TM) i7-7700HQ CPU @ 2.80GHz

Compiler: Intel(R) FORTRAN Compiler Version 19.0.0  (Build: 20190206)
          Intel(R) C/C++ Compiler Version 19.0.0  (Build: 20190206)
          Intel(R) Math Kernel Library Version 2020.0.0 Product Build 20191125

Number of machines requested            :    1
Total number of cores available         :    8
Number of physical cores available      :    4
Number of processes requested           :    2
Number of threads per process requested :    1
Total number of cores requested         :    2 (Distributed Memory Parallel)               
MPI Type: INTELMPI
MPI Version: Intel(R) MPI Library 2018 Update 3 for Windows* OS


GPU Acceleration: Not Requested

Job Name: file0
Input File: dummy.dat

  Core                Machine Name   Working Directory
 -----------------------------------------------------
     0             DESKTOP-BTDLNGA   C:\Users\ASUS\Documents\ANSYS\ANSYS2021\Sec13-4\_ProjectScratch\ScrD1EB
     1             DESKTOP-BTDLNGA   C:\Users\ASUS\Documents\ANSYS\ANSYS2021\Sec13-4\_ProjectScratch\ScrD1EB
 
Latency time from master to core     1 =    1.790 microseconds
 
Communication speed from master to core     1 =  5225.41 MB/sec

Total CPU time for main thread                    :      217.0 seconds
Total CPU time summed for all threads             :      217.4 seconds

Elapsed time spent obtaining a license            :        0.5 seconds
Elapsed time spent pre-processing model (/PREP7)  :        0.0 seconds
Elapsed time spent solution - preprocessing       :        0.0 seconds
Elapsed time spent computing solution             :      258.0 seconds
Elapsed time spent solution - postprocessing      :        1.1 seconds
Elapsed time spent post-processing model (/POST1) :        0.0 seconds
 
Equation solver used                              :            Sparse (symmetric)
Equation solver computational rate                :        2.9 Gflops

Maximum total memory used                         :      268.0 MB
Maximum total memory allocated                    :     3136.0 MB
Total physical memory available                   :         16 GB

Total amount of I/O written to disk               :        9.1 GB
Total amount of I/O read from disk                :       29.8 GB

+------ E N D   D I S T R I B U T E D   A N S Y S   S T A T I S T I C S -------+


 *---------------------------------------------------------------------------*
 |                                                                           |
 |                       DISTRIBUTED ANSYS RUN COMPLETED                     |
 |                                                                           |
 |---------------------------------------------------------------------------|
 |                                                                           |
 | Ansys 2021 R1               Build 21.1         UP20201109     WINDOWS x64 |
 |                                                                           |
 |---------------------------------------------------------------------------|
 |                                                                           |
 | Database Requested(-db)  1024 MB    Scratch Memory Requested      1024 MB |
 | Maximum Database Used       3 MB    Maximum Scratch Memory Used    132 MB |
 |                                                                           |
 |---------------------------------------------------------------------------|
 |                                                                           |
 |        CP Time      (sec) =        217.359       Time  =  09:01:48        |
 |        Elapsed Time (sec) =        262.000       Date  =  03/31/2021      |
 |                                                                           |
 *---------------------------------------------------------------------------*
