/batch
/config,noeldb,1     ! force off writing results to database
*get,_wallstrt,active,,time,wall
! ANSYS input file written by Workbench version 2021 R1
! File used for geometry attach: C:\Users\ASUS\Documents\ANSYS\ANSYS2021\Sec13-3\Microgripper_files\dp0\Geom\DM\Geom.agdb
/title,Microgripper--Static Structural (A5)
! ****** Begin Custom Load Command Snippet ******
/COM, ACT Extensions:
/COM,     LSDYNA, 2021.1
/COM,     5f463412-bd3e-484b-87e7-cbc0a665e474, wbex
/COM,
! ****** End   Custom Load Command Snippet ******
*DIM,_wb_ProjectScratch_dir,string,248
_wb_ProjectScratch_dir(1) = 'C:\Users\ASUS\Documents\ANSYS\ANSYS2021\Sec13-3\_ProjectScratch\ScrE524\'
*DIM,_wb_SolverFiles_dir,string,248
_wb_SolverFiles_dir(1) = 'C:\Users\ASUS\Documents\ANSYS\ANSYS2021\Sec13-3\Microgripper_files\dp0\SYS\MECH\'
*DIM,_wb_userfiles_dir,string,248
_wb_userfiles_dir(1) = 'C:\Users\ASUS\Documents\ANSYS\ANSYS2021\Sec13-3\Microgripper_files\user_files\'
/com,--- Data in consistent uMKS units. See Solving Units in the help system for more information.
/units,uMKS
/nopr
/wb,file,start              !  signify a WB generated input file
/prep7
! Turn off shape checking because checks already performed inside WB mesher.
! See help system for more information.
SHPP,OFF,,NOWARN
ncnv,1,1e9             ! uMKS system, Increase DOF limit to 1e9
/nolist
etcon,set             ! allow ANSYS to choose best KEYOP's for 180x elements, resets any applicable keyopt to MAPDL defaults
/com,*********** Nodes for the whole assembly ***********
nblock,3,,22228
(1i9,3e20.9e3)
    18601     1.498341817E+01     7.142451313E+02    -4.132373389E-01
    18602     1.498397097E+01     7.130314306E+02    -2.607115681E-01
    18603     1.499227666E+01     7.137178761E+02    -4.792684655E-01
    18604     1.498998738E+01     7.137746531E+02    -5.386164313E-01
    18605     1.499323419E+01     7.136410406E+02    -4.492827436E-01
    18606     1.498865737E+01     7.137301246E+02    -5.804982106E-01
    18607     1.498919020E+01     7.136800297E+02    -5.693315684E-01
    18608     1.499006939E+01     7.135449272E+02    -5.302928021E-01
    18609     1.498984283E+01     7.134765722E+02    -5.154721042E-01
    18610     1.498892880E+01     7.134118076E+02    -5.131973728E-01
    18611     1.499125413E+01     7.138378704E+02    -4.851614645E-01
    18612     1.499191409E+01     7.139018115E+02    -4.364908964E-01
    18613     1.499156084E+01     7.133476927E+02    -3.830861138E-01
    18614     1.499192690E+01     7.139755027E+02    -3.887232148E-01
    18615     1.498871281E+01     7.141444484E+02    -3.420264423E-01
    18616     1.499441711E+01     7.134555452E+02    -3.461485423E-01
    18617     1.499584670E+01     7.135651524E+02    -3.358220869E-01
    18618     1.499578667E+01     7.136745903E+02    -3.555020080E-01
    18619     1.499446404E+01     7.137659229E+02    -3.969411817E-01
    18620     1.499071895E+01     7.140599095E+02    -3.595382694E-01
! ... 20189 like lines cut
/com,*********** Nodes for all Remote Points ***********
nblock,3
(1i9,3e20.9e3)
    20209     5.386091663E+00     7.136738041E+02     7.598789918E-17
-1
/wb,elem,start            !  set before creation of elements
/com,*********** Elements for Body 1 "Gripper" ***********
et,1,187
eblock,19,solid,,10689
(19i9)
        1        1        1        1        0        0        0        0       10        0        1       25     1568     2942     2527     3126    11985     3130     3128
    11984    17601
        1        1        1        1        0        0        0        0       10        0        2       24     1568     2942       25     3120    11985     3122     3117
     3126     3130
        1        1        1        1        0        0        0        0       10        0        3     1568     2077     2942     2527    11983    14799    11985    11984
    14793    17601
        1        1        1        1        0        0        0        0       10        0        4     1547     2942     1568     2077    11907    11985    11904    11905
    14799    11983
        1        1        1        1        0        0        0        0       10        0        5       24       25     2942     2941     3117     3130     3122     3121
     3129    18600
        1        1        1        1        0        0        0        0       10        0        6       25     2527     2942     2941     3128    17601     3130     3129
    17600    18600
        1        1        1        1        0        0        0        0       10        0        7       24     2942     1568     1547     3122    11985     3120     3119
    11907    11904
        1        1        1        1        0        0        0        0       10        0        8     2077     2942     2527     2941    14799    17601    14793    14798
    18600    17600
        1        1        1        1        0        0        0        0       10        0        9     2077     2525     2942     2941    14792    17591    14799    14798
    17590    18600
        1        1        1        1        0        0        0        0       10        0       10     2077     2942     2525     2704    14799    17591    14792    14795
    18259    17585
! ... 21359 like lines cut
!Material Id = {872FF3AF-B8E6-4C10-968B-A75CFD83BDE5}
/com,*********** Elements for Body 2 "Bead" ***********
/com,*********** Send Body as a Rigid Body ***********
et,2,21
keyo,2,2,1             ! Moments of inertia in nodal coordinates
keyo,2,3,0         ! 3D Mass With Rotary Intertia
r,2,2.77433800730563e-011,2.77433800730563e-011,2.77433800730563e-011,1.53546712480925e-009,7.40926344052813e-010,1.70145058187936e-009
local,11,0,5.62441647334049,713.673805392,-5.62435392794594,-3.41335268663674e-006,-8.76917623326807e-006,-44.9985238939864
nrot,20208
csys,0
mat,2
real,2
type,2
en,15258,20208
/wb,elem,end               !  done creating elements
/com,*********** Send User Defined Coordinate System(s) ***********
local,12,0,0.,0.,0.,0.,90.,90.
local,13,0,0.,0.,0.,0.,0.,180.
csys,0
toffst,273.15,  ! Temperature offset from absolute zero
/com,*********** Set Reference Temperature ***********
tref,22.
/wb,mat,start              !  starting to send materials
/com,*********** Send Materials ***********
MP,EX,1,200,	! MPa
MP,NUXY,1,0.48,

Temperature = 'TEMP' ! Temperature
MP,DENS,2,7.85e-15,	! kg um^-3
MP,ALPX,2,1.2e-05,	! C^-1
MP,C,2,434000000000000,	! pJ kg^-1 C^-1
MP,KXX,2,60500000,	! pW um^-1 C^-1
MP,RSVX,2,1.7e-13,	! Tohm um
MP,EX,2,200000,	! MPa
MP,NUXY,2,0.3,
MP,MURX,2,10000,

/wb,mat,end                !  done sending materials
!************************* Model Summary ********************
!Gripper,	Polymer,	matid,	1
!Bead,	Structural Steel,	matid,	2
!************************* End Model Summary ********************
! get the diagonal of the bounding box. Needed later for other things
*get,_xmin,node,,mnloc,x
*get,_ymin,node,,mnloc,y
*get,_zmin,node,,mnloc,z
*get,_xmax,node,,mxloc,x
*get,_ymax,node,,mxloc,y
*get,_zmax,node,,mxloc,z
_ASMDIAG=(_xmax-_xmin)*(_xmax-_xmin)+(_ymax-_ymin)*(_ymax-_ymin)+(_zmax-_zmin)*(_zmax-_zmin)
_ASMDIAG=SQRT(_ASMDIAG)
/wb,contact,start          !  starting to send contact
/com,*********** Create Contact "Frictionless - Gripper To Bead" ***********
! ********* Create Contact to Connect To Rigid Body Mass Node *********** 
*set,tid,3
*set,cid,3
et,tid,170
keyo,tid,2,1           ! Set MPC target element and not fix pilot
keyo,tid,4,0           ! Create CE's for all DOFs
type,tid
mat ,cid
real,cid
tshape,pilo
en,15260,20208
tshape
! ********* End of Create Contact to Connect To Rigid Body Mass Node *********** 
! ******--- Create Insulation Layer on Rigid Body for Surface BC's ---******** 
eblock,10,,,512
(15i9)
    15261        3        3        3        0    19060    19078    19015    19006    20089    19977    19963    19964
    15262        3        3        3        0    19077    19060    19006    19005    20088    19964    19961    19962
    15263        3        3        3        0    19059    19056    19039    19019    20079    20042    19980    19981
    15264        3        3        3        0    19059    19019    19081    19080    19981    19982    20119    20086
    15265        3        3        3        0    19019    19037    19105    19081    19979    20039    20122    19982
    15266        3        3        3        0    19038    19037    19019    19039    20037    19979    19980    20040
    15267        3        3        3        0    19057    19058    19055    19020    20082    20077    19983    19984
    15268        3        3        3        0    19057    19020    19061    19106    19984    19985    20091    20084
    15269        3        3        3        0    19020    19063    19062    19061    19986    20093    20090    19985
    15270        3        3        3        0    19020    19055    19064    19063    19983    20078    20095    19986
    15271        3        3        3        0    19051    19050    19028    19029    20066    20010    20009    20013
    15272        3        3        3        0    19029    19031    19052    19051    20012    20019    20068    20013
    15273        3        3        3        0    19050    19049    19027    19028    20063    20007    20006    20010
    15274        3        3        3        0    19049    19101    19026    19027    20065    20004    20003    20007
    15275        3        3        3        0    19101    19048    19025    19026    20062    20001    20000    20004
    15276        3        3        3        0    19048    19047    19024    19025    20059    19998    19997    20001
    15277        3        3        3        0    19047    19046    19023    19024    20057    19995    19994    19998
    15278        3        3        3        0    19046    19045    19021    19023    20055    19989    19988    19995
    15279        3        3        3        0    19045    19044    19022    19021    20053    19992    19987    19989
    15280        3        3        3        0    19044    19043    19030    19022    20051    20016    19991    19992
! ... 493 like lines cut
! ******--- End Create Insulation Layer on Rigid Body for Surface BC's ---******** 
/com,            Real Constant Set For Above Contact Is 5 & 4 
*set,tid,5
*set,cid,4
r,tid
r,cid
et,tid,170
et,cid,174
eblock,10,,,591
(15i9)
    15773        4        4        4        0     1409     1449     1422     1422    11177    11254     1422    11173
    15774        4        4        4        0     1408     1453     1428     1428    11167    11297     1428    11163
    15775        4        4        4        0     1404     1426     1431     1431    11124    11282     1431    11125
    15776        4        4        4        0     1406     1455     1431     1431    11148    11313     1431    11145
    15777        4        4        4        0     1404     1431     1414     1414    11125    11208     1414    11122
    15778        4        4        4        0     1417     1429     1456     1456    11226    11301     1456    11228
    15779        4        4        4        0     1403     1415     1432     1432    11112    11214     1432    11115
    15780        4        4        4        0     1409     1456     1429     1429    11178    11301     1429    11174
    15781        4        4        4        0     1407     1435     1418     1418    11155    11232     1418    11152
    15782        4        4        4        0     1406     1431     1448     1448    11145    11312     1448    11147
    15783        4        4        4        0     1416     1430     1452     1452    11219    11307     1452    11221
    15784        4        4        4        0     1409     1422     1430     1430    11173    11252     1430    11175
    15785        4        4        4        0     1403     1433     1412     1412    11116    11196     1412    11111
    15786        4        4        4        0     1404     1450     1421     1421    11127    11247     1421    11123
    15787        4        4        4        0     1413     1428     1453     1453    11199    11297     1453    11201
    15788        4        4        4        0     1410     1444     1435     1435    11186    11329     1435    11184
    15789        4        4        4        0     1406     1425     1428     1428    11143    11277     1428    11144
    15790        4        4        4        0     1427     1432     1457     1457    11287    11319     1457    11289
    15791        4        4        4        0     1407     1430     1447     1447    11154    11306     1447    11157
    15792        4        4        4        0     1405     1457     1432     1432    11137    11319     1432    11133
! ... 572 like lines cut
eblock,10,,,512
(15i9)
    16364        5        4        5        0    19060    19078    19015    19006    20089    19977    19963    19964
    16365        5        4        5        0    19077    19060    19006    19005    20088    19964    19961    19962
    16366        5        4        5        0    19059    19056    19039    19019    20079    20042    19980    19981
    16367        5        4        5        0    19059    19019    19081    19080    19981    19982    20119    20086
    16368        5        4        5        0    19019    19037    19105    19081    19979    20039    20122    19982
    16369        5        4        5        0    19038    19037    19019    19039    20037    19979    19980    20040
    16370        5        4        5        0    19057    19058    19055    19020    20082    20077    19983    19984
    16371        5        4        5        0    19057    19020    19061    19106    19984    19985    20091    20084
    16372        5        4        5        0    19020    19063    19062    19061    19986    20093    20090    19985
    16373        5        4        5        0    19020    19055    19064    19063    19983    20078    20095    19986
    16374        5        4        5        0    19051    19050    19028    19029    20066    20010    20009    20013
    16375        5        4        5        0    19029    19031    19052    19051    20012    20019    20068    20013
    16376        5        4        5        0    19050    19049    19027    19028    20063    20007    20006    20010
    16377        5        4        5        0    19049    19101    19026    19027    20065    20004    20003    20007
    16378        5        4        5        0    19101    19048    19025    19026    20062    20001    20000    20004
    16379        5        4        5        0    19048    19047    19024    19025    20059    19998    19997    20001
    16380        5        4        5        0    19047    19046    19023    19024    20057    19995    19994    19998
    16381        5        4        5        0    19046    19045    19021    19023    20055    19989    19988    19995
    16382        5        4        5        0    19045    19044    19022    19021    20053    19992    19987    19989
    16383        5        4        5        0    19044    19043    19030    19022    20051    20016    19991    19992
! ... 493 like lines cut
! ******--- Create Pilot Element For Rigid Targets ---******** 
mat,4
real,4
type,5
tshape,pilo
en,16876,20208
tshape
! ******--- End Create Pilot Element For Rigid Targets ---******** 
keyo,tid,2,1               ! Don't fix the pilot node since scoped to rigid body
keyo,cid,10,0              ! adjust contact stiffness each NR iteration (from Program Controlled setting)
keyo,cid,12,0              ! standard contact
keyo,cid,2,0               ! augmented Lagrange 
keyo,cid,4,0               ! on Gauss point (from Program Controlled setting)
keyo,cid,9,0               ! use real geometry with stepped effects
keyo,cid,7,0               ! No Prediction
rmod,cid,3,1.       ! FKN
rmod,cid,5,0.       ! ICONT
rmod,cid,6,0.       ! PINB
rmod,cid,10,0.      ! CNOF
rmod,cid,12,0.      ! FKT
rmod,cid,36,30      ! WB DSID
mp,ex,cid,200.      ! EX of underlying rigid body
nsel,all
esel,all
/wb,contact,end            !  done creating contacts
/golist
/wb,load,start             !  starting to send loads
/com,*********** Fixed Supports ***********
CMBLOCK,_FIXEDSU,NODE,      373
(8i10)
       437       463       464       465       466       467       468       469
       470       471       472       498       499       500       501       502
       503       504       505       506       507       508       509       510
       511       512       513       514       515       516       517       518
       519       520       521       522       523       524       525       526
       527       528       529       530       531       532       533       534
       535       536       537       538      1710      1711      1712      1713
      1714      1715      1716      1717      1718      1719      1720      1721
      1722      1723      1724      1725      1726      1727      1728      1729
      1730      1731      1732      1733      1734      1735      1736      1737
      1738      1739      1740      1741      1742      1743      1744      1745
      1746      1747      1748      1749      1750      1751      1752      1753
      1754      1755      1756      1757      1758      1759      1760      1761
      1762      1763      1764      5722      5723      5853      5855      5856
      5857      5858      5861      5862      5863      5866      5867      5869
      5870      5871      5875      5876      5878      5879      5880      5884
      5885      5886      5888      5889      5890      5895      5896      6018
      6019      6022      6024      6026      6029      6030      6031      6033
      6034      6037      6038      6040      6042      6043      6045      6048
      6049      6051      6053      6055      6058      6059      6061      6063
! ... 27 like lines cut
cmsel,s,_FIXEDSU
d,all,all
nsel,all
/com,********* Frictionless Supports X *********
CMBLOCK,_FRICSUX,NODE,      599
(8i10)
       217       218       219       220       221       222       223       224
       225       226       227       236       237       238       239       240
       241       242       243       244       245       246       540       546
       547       548       549       550       551       552       553       554
       555       618       619       620       621       622       623       624
       625       626       627       628       629       630       631       632
       633       634       635       636       637       638       639       640
       641       642       643       644       645       646       647       648
       649       650       651       652       653       654       655       656
       657       658       659       660       661       662       663       664
       665       666       667      1577      1578      1579      1580      1581
      1582      1583      1584      1585      1586      1587      1588      1589
      1590      1591      1592      1593      1594      1595      1596      1597
      1598      1599      1600      1601      1602      1603      1604      1605
      1606      1607      1608      1609      1610      1611      1612      1613
      1614      1615      1616      1617      1618      1619      1620      1621
      1622      1623      1624      1625      1626      1627      1628      1629
      1630      1631      1632      1633      1634      1635      1636      1637
      1638      1639      1640      1641      1642      1643      1644      1645
      1646      1647      1648      1649      1650      1651      1652      1653
! ... 55 like lines cut
cmsel,s,_FRICSUX
d,all,ux,0
nsel,all
/com,********* Frictionless Supports Z *********
CMBLOCK,_FRICSUZ,NODE,     1401
(8i10)
         1         2        28        29        30        31        32        58
        59        60        61        62        63        64        65        66
        67        68        69        70        71        72        73        74
        75       101       102       103       104       105       106       107
       108       109       110       111       112       138       139       140
       141       142       143       144       145       146       157       158
       159       160       161       162       173       174       175       176
       177       178       179       180       181       182       183       184
       185       186       187       188       189       190       218       232
       233       234       235       236       247       248       249       250
       251       252       253       254       255       274       275       276
       277       278       279       280       281       282       283       284
       309       310       322       323       324       325       326       327
       328       329       330       331       332       333       334       335
       336       361       362       363       376       377       378       379
       380       381       397       398       399       400       414       415
       416       417       418       419       420       438       439       440
       441       442       443       444       445       446       447       448
       449       450       451       452       453       454       455       456
       457       458       459       460       461       462       546       556
! ... 156 like lines cut
cmsel,s,_FRICSUZ
d,all,uz,0
nsel,all
/com,*********** Create Remote Point "Internal Remote Point" ***********
! -------- Remote Point Used by "Remote Displacement" --------
*set,_npilot,20209
_npilot72=_npilot
mat,3
real,3
type,3
en,16877,20208,20209
/com,*********** Define Force Using Surface Effect Elements ***********
local,14,0,0.,0.,0.,0.,0.,0.
csys,0
et,6,156
keyop,6,5,1         !  No orientation node
eblock,10,,,10
(15i9)
    16878        6        6        6       14      241      240     4648
    16879        6        6        6       14      242      243     4661
    16880        6        6        6       14      238      239     4637
    16881        6        6        6       14      236      238     4631
    16882        6        6        6       14      246      237     4634
    16883        6        6        6       14      244      245     4671
    16884        6        6        6       14      243      244     4665
    16885        6        6        6       14      245      246     4677
    16886        6        6        6       14      239      240     4644
    16887        6        6        6       14      241      242     4655
-1
esel,s,type,,6
keyop,6,2,1                ! Apply load in local coordinate system
keyop,6,7,1                ! Use original area so load is constant in large deformation
esel,all
/com,*********** Construct Remote Displacement ***********

/COM,*** Create a component for all remote displacements ***
CMBLOCK,REMOTEDISPALL,NODE,        1
(8i10)
     20209

/gst,on,on
fini
*get,_numnode,node,0,count
*get,_numelem,elem,0,count
*get, _MAXELEMNUM, elem, 0, NUM, MAX
*get, _MAXNODENUM, node, 0, NUM, MAX
*get, _MAXELEMTYPE, etyp, 0, NUM, MAX
*get, _MAXREALCONST, real, 0, NUM, MAX
/go
/wb,load,end               !  done creating loads
/com,--- Number of total nodes = %_numnode%
/com,--- Number of contact elements = 1625
/com,--- Number of spring elements = 0
/com,--- Number of bearing elements = 0
/com,--- Number of solid elements = 11202
/com,--- Number of condensed parts = 0
/com,--- Number of total elements = %_numelem%
*get,_wallbsol,active,,time,wall
/com,****************************************************************************
/com,*************************    SOLUTION       ********************************
/com,****************************************************************************
/solu
antype,0                   ! static analysis
nlgeom,on                  ! Turn on Large Deformation Effects
_thickRatio=0.5     ! Ratio of thick parts in the model
eqsl,sparse,,,,,1
cntr,print,1               ! print out contact info and also make no initial contact an error
dmpoption,emat,no             ! Don't combine emat file for DANSYS
dmpoption,esav,no             ! Don't combine esav file for DANSYS
nldiag,cont,iter           ! print out contact info each equilibrium iteration
rescontrol,define,last,last,,dele	   ! Program Controlled
/com,****************************************************
/com,******************* SOLVE FOR LS 1 OF 1 ****************
esel,s,type,,6
nsle
sfe,all,1,pres,1,0.
sfe,all,2,pres,1,-6.66666666666667e-002
sfe,all,3,pres,1,0.
nsel,all
esel,all
d,20209,ux,0.
d,20209,uy,0.
d,20209,uz,0.
d,20209,rotx,0.
d,20209,roty,0.
d,20209,rotz,0.
/nopr
/gopr
/nolist
autots,on                  ! Workbench Program Controlled automatic time stepping
nsub,1,10,1                ! due to presence of general nonlinear
time,1.
outres,erase
outres,all,none
outres,nsol,all,
outres,rsol,all
outres,eangl,all
outres,etmp,all
outres,veng,all
outres,strs,all,
outres,epel,all,
outres,eppl,all,
outres,cont,all,
/nopr
esel,s,type,,2
cm,_elmisc,elem
esel,all
/gopr
outres,misc,all,_elmisc
! *********** WB SOLVE COMMAND ***********
! check interactive state
*get,ANSINTER_,active,,int
*if,ANSINTER_,ne,0,then
/eof
*endif
solve
/com *************** Write FE CONNECTORS ********* 
CEWRITE,file,ce,,INTE
/com,****************************************************
/com,*************** FINISHED SOLVE FOR LS 1 *************
*get,_wallasol,active,,time,wall
/nopr
*get,_numnode,node,0,count
*get,_numelem,elem,0,count
*get, _MAXELEMNUM, elem, 0, NUM, MAX
*get, _MAXNODENUM, node, 0, NUM, MAX,,,INTERNAL
*get, _MAXELEMTYPE, etyp, 0, NUM, MAX
*get, _MAXREALCONST, real, 0, NUM, MAX
/gopr
/post1
xmlo,ENCODING,ISO-8859-1
xmlo,parm
/xml,parm,xml
fini
/gopr
*get,_walldone,active,,time,wall
_preptime=(_wallbsol-_wallstrt)*3600
_solvtime=(_wallasol-_wallbsol)*3600
_posttime=(_walldone-_wallasol)*3600
_totaltim=(_walldone-_wallstrt)*3600
*get,_dlbratio,active,0,solu,dlbr
*get,_combtime,active,0,solu,comb
/com,--- Total number of nodes = %_numnode%
/com,--- Total number of elements = %_numelem%
/com,--- Element load balance ratio = %_dlbratio%
/com,--- Time to combine distributed files = %_combtime%
/wb,file,end               ! done with WB generated input
