/batch
/config,noeldb,1     ! force off writing results to database
*get,_wallstrt,active,,time,wall
! ANSYS input file written by Workbench version 2021 R1
! File used for geometry attach: C:\Users\ASUS\Documents\ANSYS\ANSYS2021\Sec03-4\Gear_files\dp0\Geom-1\DM\Geom-1.agdb
/title,Gear--Static Structural (C5)
! ****** Begin Custom Load Command Snippet ******
/COM, ACT Extensions:
/COM,     LSDYNA, 2021.1
/COM,     5f463412-bd3e-484b-87e7-cbc0a665e474, wbex
/COM,
! ****** End   Custom Load Command Snippet ******
*DIM,_wb_ProjectScratch_dir,string,248
_wb_ProjectScratch_dir(1) = 'C:\Users\ASUS\Documents\ANSYS\ANSYS2021\Sec03-4\_ProjectScratch\Scr8A78\'
*DIM,_wb_SolverFiles_dir,string,248
_wb_SolverFiles_dir(1) = 'C:\Users\ASUS\Documents\ANSYS\ANSYS2021\Sec03-4\Gear_files\dp0\SYS\MECH\'
*DIM,_wb_userfiles_dir,string,248
_wb_userfiles_dir(1) = 'C:\Users\ASUS\Documents\ANSYS\ANSYS2021\Sec03-4\Gear_files\user_files\'
/com,--- Data in consistent BIN units. See Solving Units in the help system for more information.
/units,BIN
/nopr
/wb,file,start              !  signify a WB generated input file
/prep7
! Turn off shape checking because checks already performed inside WB mesher.
! See help system for more information.
SHPP,OFF,,NOWARN
/nolist
etcon,set             ! allow ANSYS to choose best KEYOP's for 180x elements, resets any applicable keyopt to MAPDL defaults
/com,*********** Nodes for the whole assembly ***********
nblock,3,,17290
(1i9,3e20.9e3)
        1     1.250000000E+00     1.530808499E-16     0.000000000E+00
        2     1.227566719E+00     2.357540054E-01     0.000000000E+00
        3     1.163554096E+00     4.567733208E-01     0.000000000E+00
        4     1.059847658E+00     6.627389701E-01     0.000000000E+00
        5     9.138752841E-01     8.528375960E-01     0.000000000E+00
        6     7.346149033E-01     1.011355993E+00     0.000000000E+00
        7     5.371269078E-01     1.128713730E+00     0.000000000E+00
        8     3.340632505E-01     1.204533829E+00     0.000000000E+00
        9     1.284721954E-01     1.243380431E+00     0.000000000E+00
       10    -7.870445701E-02     1.247519783E+00     0.000000000E+00
       11    -2.841442089E-01     1.217276496E+00     0.000000000E+00
       12    -4.868700853E-01     1.151285160E+00     0.000000000E+00
       13    -6.849358394E-01     1.045639946E+00     0.000000000E+00
       14    -8.715863455E-01     8.960118539E-01     0.000000000E+00
       15    -1.026403437E+00     7.134395445E-01     0.000000000E+00
       16    -1.141075276E+00     5.103402929E-01     0.000000000E+00
       17    -1.215457552E+00     2.918268989E-01     0.000000000E+00
       18    -1.248599069E+00     5.916389106E-02     0.000000000E+00
       19    -1.237086177E+00    -1.792143681E-01     0.000000000E+00
       20    -1.182976072E+00    -4.038163117E-01     0.000000000E+00
! ... 15700 like lines cut
/com,*********** Nodes for all Remote Points ***********
nblock,3
(1i9,3e20.9e3)
    15720    -6.486151918E-17     5.010000000E+00     0.000000000E+00
-1
/wb,elem,start            !  set before creation of elements
/com,*********** Elements for Body 1 "Lower Gear" ***********
et,1,183
keyo,1,3,3
eblock,19,solid,,2480
(19i9)
        1        1        1        1        0        0        0        0        8        0        1      348      353     2122     2122     3426     3436     2122     3427
        1        1        1        1        0        0        0        0        8        0        2      373      372     2249     2249     3475     3476     2249     3477
        1        1        1        1        0        0        0        0        8        0        3       96       95     2275     2275     2917     2918     2275     2920
        1        1        1        1        0        0        0        0        8        0        4     2345     1825     2346     2346     7039     7040     2346     7761
        1        1        1        1        0        0        0        0        8        0        5     2317     1813     2318     2318     7008     7009     2318     7730
        1        1        1        1        0        0        0        0        8        0        6     1800     2542     2285     2285     6980     7687     2285     6979
        1        1        1        1        0        0        0        0        8        0        7     1930     2454     1937     1937     7225     7234     1937     7224
        1        1        1        1        0        0        0        0        8        0        8     2068     1669     2066     2066     6653     6652     2066     7395
        1        1        1        1        0        0        0        0        8        0        9     2314      106     2065     2065     2940     2939     2065     7394
        1        1        1        1        0        0        0        0        8        0       10     1380     1379     1584     1584     5986     5987     1584     5989
        1        1        1        1        0        0        0        0        8        0       11     2633     1064     1056     1056     5267     5240     1056     5243
        1        1        1        1        0        0        0        0        8        0       12     2527     1297     1369     1369     5800     5799     1369     5965
        1        1        1        1        0        0        0        0        8        0       13     1341     1159     2611     2611     5473     5475     2611     5899
        1        1        1        1        0        0        0        0        8        0       14     1361     1573     1368     1368     5945     5962     1368     5944
        1        1        1        1        0        0        0        0        8        0       15     1094     1037     1036     1036     5188     5183     1036     5184
        1        1        1        1        0        0        0        0        8        0       16      950     2504      898      898     4961     4823      898     4821
        1        1        1        1        0        0        0        0        8        0       17      947     1194     2703     2703     4951     5557     2703     4953
        1        1        1        1        0        0        0        0        8        0       18     2716     2570      943      943     7906     4942      943     4943
        1        1        1        1        0        0        0        0        8        0       19     1344      956     2548     2548     4979     4980     2548     5907
        1        1        1        1        0        0        0        0        8        0       20      800      797      991      991     4557     4559      991     4566
! ... 2461 like lines cut
!Material Id = {9DFB2248-43E2-4185-8857-3B4705DE9105}
/com,*********** Elements for Body 2 "Upper Gear" ***********
et,2,183
keyo,2,3,3
eblock,19,solid,,2439
(19i9)
        2        2        2        2        0        0        0        0        8        0     2481     8030     8029    10163    10163    10818    10819    10163    10820
        2        2        2        2        0        0        0        0        8        0     2482     8363     8362     9959     9959    11489    11490     9959    11491
        2        2        2        2        0        0        0        0        8        0     2483     8237     8236    10187    10187    11234    11235    10187    11237
        2        2        2        2        0        0        0        0        8        0     2484    10222     9726    10223    10223    14898    14899    10223    15560
        2        2        2        2        0        0        0        0        8        0     2485    10192     9716    10193    10193    14871    14872    10193    15525
        2        2        2        2        0        0        0        0        8        0     2486     9561     9964     9965     9965    14506    15239     9965    14507
        2        2        2        2        0        0        0        0        8        0     2487     9752     9473     9827     9827    14294    14296     9827    14956
        2        2        2        2        0        0        0        0        8        0     2488     9957     9698     9956     9956    14828    14827     9956    15228
        2        2        2        2        0        0        0        0        8        0     2489    10013    10012     9593     9593    15305    14586     9593    14587
        2        2        2        2        0        0        0        0        8        0     2490    10311     9568     9977     9977    14527    14526     9977    15254
        2        2        2        2        0        0        0        0        8        0     2491     9560     9482     9561     9561    14321    14322     9561    14503
        2        2        2        2        0        0        0        0        8        0     2492     9653     9307    10426    10426    13909    13910    10426    14727
        2        2        2        2        0        0        0        0        8        0     2493     9976     9569     9485     9485    14528    14332     9485    14333
        2        2        2        2        0        0        0        0        8        0     2494     9525     9382     9526     9526    14086    14087     9526    14426
        2        2        2        2        0        0        0        0        8        0     2495    10363     9562    10296    10296    14511    14510    10296    15619
        2        2        2        2        0        0        0        0        8        0     2496     9231     9137    10575    10575    13494    13495    10575    13731
        2        2        2        2        0        0        0        0        8        0     2497     9424     9760     9377     9377    14188    14073     9377    14071
        2        2        2        2        0        0        0        0        8        0     2498     9240     9241    10395    10395    13753    13758    10395    13755
        2        2        2        2        0        0        0        0        8        0     2499     9044     9151     8991     8991    13264    13133     8991    13132
        2        2        2        2        0        0        0        0        8        0     2500     9128     9025     9140     9140    13224    13225     9140    13470
! ... 2420 like lines cut
!Material Id = {D1F98ABC-D1A2-43C7-B124-6885499B490C}
/wb,elem,end               !  done creating elements
/com,*********** Send User Defined Coordinate System(s) ***********
csys,0
toffst,459.67,  ! Temperature offset from absolute zero
/com,*********** Set Reference Temperature ***********
tref,71.6
/wb,mat,start              !  starting to send materials
/com,*********** Send Materials ***********
Temperature = 'TEMP' ! Temperature
MP,DENS,1,0.000734544492879577,	! slinch in^-3
MP,ALPX,1,6.66666666666667e-06,	! F^-1
MP,C,1,373722.969668162,	! in^2 s^-2 F^-1
MP,KXX,1,7.55607836445752,	! slinch in s^-3 F^-1
MP,RSVX,1,8.52348993288591,	! ohm cmil in^-1
MP,EX,1,29007547.5428236,	! slinch s^-2 in^-1
MP,NUXY,1,0.3,
MP,MURX,1,10000,

Temperature = 'TEMP' ! Temperature
MP,DENS,2,0.000734544492879577,	! slinch in^-3
MP,ALPX,2,6.66666666666667e-06,	! F^-1
MP,C,2,373722.969668162,	! in^2 s^-2 F^-1
MP,KXX,2,7.55607836445752,	! slinch in s^-3 F^-1
MP,RSVX,2,8.52348993288591,	! ohm cmil in^-1
MP,EX,2,29007547.5428236,	! slinch s^-2 in^-1
MP,NUXY,2,0.3,
MP,MURX,2,10000,

/wb,mat,end                !  done sending materials
/com,*********** Send Sheet Properties ***********
r,1,1.

r,2,1.

!************************* Model Summary ********************
!Lower Gear,	Structural Steel,	matid,	1
!Upper Gear,	Structural Steel,	matid,	2
!************************* End Model Summary ********************
! get the diagonal of the bounding box. Needed later for other things
*get,_xmin,node,,mnloc,x
*get,_ymin,node,,mnloc,y
*get,_zmin,node,,mnloc,z
*get,_xmax,node,,mxloc,x
*get,_ymax,node,,mxloc,y
*get,_zmax,node,,mxloc,z
_ASMDIAG=(_xmax-_xmin)*(_xmax-_xmin)+(_ymax-_ymin)*(_ymax-_ymin)+(_zmax-_zmin)*(_zmax-_zmin)
_ASMDIAG=SQRT(_ASMDIAG)
/wb,contact,start          !  starting to send contact
/com,*********** Create Contact "Frictionless - Lower Gear To Upper Gear" ***********
/com,            Real Constant Set For Above Contact Is 4 & 3 
*set,tid,4
*set,cid,3
r,tid
r,cid
et,tid,169
et,cid,172
eblock,10,,,44
(15i9)
     4921        4        4        4        0      254      302     3237
     4922        4        4        4        0      302      301     3330
     4923        4        4        4        0      301      300     3328
     4924        4        4        4        0      300      299     3326
     4925        4        4        4        0      299      298     3324
     4926        4        4        4        0      298      297     3322
     4927        4        4        4        0      297      296     3320
     4928        4        4        4        0      296      295     3318
     4929        4        4        4        0      295      294     3316
     4930        4        4        4        0      294      293     3314
     4931        4        4        4        0      260      259     3246
     4932        4        4        4        0      261      260     3248
     4933        4        4        4        0      262      261     3250
     4934        4        4        4        0      263      262     3252
     4935        4        4        4        0      264      263     3254
     4936        4        4        4        0      265      264     3256
     4937        4        4        4        0      266      265     3258
     4938        4        4        4        0      267      266     3260
     4939        4        4        4        0      268      267     3262
     4940        4        4        4        0      269      268     3264
! ... 25 like lines cut
eblock,10,,,44
(15i9)
     4965        3        3        3        0      254      302     3237
     4966        3        3        3        0      302      301     3330
     4967        3        3        3        0      301      300     3328
     4968        3        3        3        0      300      299     3326
     4969        3        3        3        0      299      298     3324
     4970        3        3        3        0      298      297     3322
     4971        3        3        3        0      297      296     3320
     4972        3        3        3        0      296      295     3318
     4973        3        3        3        0      295      294     3316
     4974        3        3        3        0      294      293     3314
     4975        3        3        3        0      260      259     3246
     4976        3        3        3        0      261      260     3248
     4977        3        3        3        0      262      261     3250
     4978        3        3        3        0      263      262     3252
     4979        3        3        3        0      264      263     3254
     4980        3        3        3        0      265      264     3256
     4981        3        3        3        0      266      265     3258
     4982        3        3        3        0      267      266     3260
     4983        3        3        3        0      268      267     3262
     4984        3        3        3        0      269      268     3264
! ... 25 like lines cut
eblock,10,,,44
(15i9)
     5009        3        4        3        0     8402     8401    11567
     5010        3        4        3        0     8401     8400    11565
     5011        3        4        3        0     8395     8442    11556
     5012        3        4        3        0     8442     8441    11647
     5013        3        4        3        0     8441     8440    11645
     5014        3        4        3        0     8440     8439    11643
     5015        3        4        3        0     8439     8438    11641
     5016        3        4        3        0     8438     8437    11639
     5017        3        4        3        0     8437     8436    11637
     5018        3        4        3        0     8436     8435    11635
     5019        3        4        3        0     8435     8434    11633
     5020        3        4        3        0     8434     8433    11631
     5021        3        4        3        0     8400     7959    10676
     5022        3        4        3        0     8403     8402    11569
     5023        3        4        3        0     8404     8403    11571
     5024        3        4        3        0     8405     8404    11573
     5025        3        4        3        0     8406     8405    11575
     5026        3        4        3        0     8407     8406    11577
     5027        3        4        3        0     8408     8407    11579
     5028        3        4        3        0     8409     8408    11581
! ... 25 like lines cut
eblock,10,,,44
(15i9)
     5053        4        3        4        0     8402     8401    11567
     5054        4        3        4        0     8401     8400    11565
     5055        4        3        4        0     8395     8442    11556
     5056        4        3        4        0     8442     8441    11647
     5057        4        3        4        0     8441     8440    11645
     5058        4        3        4        0     8440     8439    11643
     5059        4        3        4        0     8439     8438    11641
     5060        4        3        4        0     8438     8437    11639
     5061        4        3        4        0     8437     8436    11637
     5062        4        3        4        0     8436     8435    11635
     5063        4        3        4        0     8435     8434    11633
     5064        4        3        4        0     8434     8433    11631
     5065        4        3        4        0     8400     7959    10676
     5066        4        3        4        0     8403     8402    11569
     5067        4        3        4        0     8404     8403    11571
     5068        4        3        4        0     8405     8404    11573
     5069        4        3        4        0     8406     8405    11575
     5070        4        3        4        0     8407     8406    11577
     5071        4        3        4        0     8408     8407    11579
     5072        4        3        4        0     8409     8408    11581
! ... 25 like lines cut
keyo,cid,8,2               ! auto create asymmetric contact (from Program Controlled setting)
keyo,cid,10,0              ! adjust contact stiffness each NR iteration (from Program Controlled setting)
keyo,cid,12,0              ! standard contact
keyo,cid,18,1              ! small sliding turned on by application
keyo,cid,2,0               ! augmented Lagrange 
keyo,cid,4,0               ! on Gauss point (from Program Controlled setting)
keyo,cid,9,1               ! ignore initial gaps/penetration
keyo,cid,5,1               ! auto CNOF adjustment to close geometric gap only
keyo,cid,7,0               ! No Prediction
rmod,tid,3,1.       ! FKN
rmod,tid,5,0.       ! ICONT
rmod,tid,6,1.       ! PINB
rmod,tid,10,0.      ! CNOF
rmod,tid,12,0.      ! FKT
rmod,tid,36,27      ! WB DSID
rmod,cid,3,1.       ! FKN
rmod,cid,5,0.       ! ICONT
rmod,cid,6,1.       ! PINB
rmod,cid,10,0.      ! CNOF
rmod,cid,12,0.      ! FKT
rmod,cid,36,27      ! WB DSID
nsel,all
esel,all
/wb,contact,end            !  done creating contacts
/golist
/wb,load,start             !  starting to send loads
/com,*********** Fixed Supports ***********
CMBLOCK,_FIXEDSU,NODE,       68
(8i10)
         1         2         3         4         5         6         7         8
         9        10        11        12        13        14        15        16
        17        18        19        20        21        22        23        24
        25        26        27        28        29        30        31        32
        33        34      2723      2724      2726      2728      2730      2732
      2734      2736      2739      2741      2743      2745      2747      2749
      2751      2753      2756      2758      2760      2762      2764      2766
      2768      2770      2773      2775      2777      2779      2781      2783
      2785      2787      2789      2792
cmsel,s,_FIXEDSU
d,all,all
nsel,all
/com,********* Frictionless Supports X *********
CMBLOCK,_FRICSUX,NODE,       33
(8i10)
      7925      7926      7927      7928      7929      7938      7939      7940
      7941      7942      7943      7944      7945      7955      7956      7957
      7958     10603     10604     10606     10608     10610     10631     10633
     10636     10638     10640     10642     10644     10646     10667     10670
     10672
cmsel,s,_FRICSUX
d,all,ux,0
nsel,all
/com,********* Frictionless Supports Y *********
CMBLOCK,_FRICSUY,NODE,       35
(8i10)
      7930      7931      7932      7933      7934      7935      7936      7937
      7946      7947      7948      7949      7950      7951      7952      7953
      7954     10612     10614     10617     10619     10621     10623     10625
     10627     10629     10648     10650     10653     10655     10657     10659
     10661     10663     10665
cmsel,s,_FRICSUY
d,all,uy,0
nsel,all
/com,*********** Node Rotations ***********
nmod,7926,,,,10.8712800170293,0.,0.
nmod,7927,,,,21.4333498161347,0.,0.
nmod,7928,,,,32.0183727331863,0.,0.
nmod,7929,,,,43.0212905476453,0.,0.
nmod,7930,,,,-35.9933905304809,0.,0.
nmod,7931,,,,-25.2585532734937,0.,0.
nmod,7932,,,,-14.6647695600261,0.,0.
nmod,7933,,,,-3.91472970494542,0.,0.
nmod,7934,,,,7.06761374375666,0.,0.
nmod,7935,,,,17.6978508481552,0.,0.
nmod,7936,,,,28.2402977043984,0.,0.
nmod,7937,,,,39.0602902735719,0.,0.
nmod,7938,,,,-39.9329367977225,0.,0.
nmod,7939,,,,-29.0873907893214,0.,0.
nmod,7940,,,,-18.474458617615,0.,0.
nmod,7941,,,,-7.81868540876456,0.,0.
nmod,7942,,,,3.15453855018353,0.,0.
nmod,7943,,,,13.8994958821365,0.,0.
nmod,7944,,,,24.436926480099,0.,0.
nmod,7945,,,,35.0823116211135,0.,0.
! ... 47 like lines cut
/com,*********** Create Remote Point "Internal Remote Point" ***********
! -------- Remote Point Used by "Moment" --------
*set,tid,6
*set,cid,5
et,cid,172
et,tid,169
keyo,tid,2,1               ! Don't fix the pilot node
keyo,tid,4,000111
keyo,cid,12,5              ! Bonded Contact 
keyo,cid,4,1               ! Deformable RBE3 style load
keyo,cid,2,2               ! MPC style contact
eblock,10,,,34
(15i9)
     5097        5        5        5        0     7926     7925    10603
     5098        5        5        5        0     7927     7926    10606
     5099        5        5        5        0     7930     7929    10612
     5100        5        5        5        0     7929     7928    10610
     5101        5        5        5        0     7928     7927    10608
     5102        5        5        5        0     7925     7958    10604
     5103        5        5        5        0     7958     7957    10672
     5104        5        5        5        0     7957     7956    10670
     5105        5        5        5        0     7956     7955    10667
     5106        5        5        5        0     7947     7946    10648
     5107        5        5        5        0     7946     7945    10646
     5108        5        5        5        0     7945     7944    10644
     5109        5        5        5        0     7944     7943    10642
     5110        5        5        5        0     7943     7942    10640
     5111        5        5        5        0     7942     7941    10638
     5112        5        5        5        0     7941     7940    10636
     5113        5        5        5        0     7940     7939    10633
     5114        5        5        5        0     7939     7938    10631
     5115        5        5        5        0     7938     7937    10629
     5116        5        5        5        0     7937     7936    10627
! ... 15 like lines cut
*set,_npilot,15720
_npilot47=_npilot
type,tid
mat ,cid
real,cid
tshape,pilo
en,5131,_npilot
tshape
/com,*********** Construct Moment Using Remote Attachment ***********
/gst,on,on
fini
*get,_numnode,node,0,count
*get,_numelem,elem,0,count
*get, _MAXELEMNUM, elem, 0, NUM, MAX
*get, _MAXNODENUM, node, 0, NUM, MAX
*get, _MAXELEMTYPE, etyp, 0, NUM, MAX
*get, _MAXREALCONST, real, 0, NUM, MAX
/go
/wb,load,end               !  done creating loads
/com,--- Number of total nodes = %_numnode%
/com,--- Number of contact elements = 210
/com,--- Number of spring elements = 0
/com,--- Number of bearing elements = 0
/com,--- Number of solid elements = 4919
/com,--- Number of condensed parts = 0
/com,--- Number of total elements = %_numelem%
*get,_wallbsol,active,,time,wall
/com,****************************************************************************
/com,*************************    SOLUTION       ********************************
/com,****************************************************************************
/solu
antype,0                   ! static analysis
_thickRatio=  0     ! Ratio of thick parts in the model
eqsl,sparse,,,,,1
cntr,print,1               ! print out contact info and also make no initial contact an error
dmpoption,emat,no             ! Don't combine emat file for DANSYS
dmpoption,esav,no             ! Don't combine esav file for DANSYS
nldiag,cont,iter           ! print out contact info each equilibrium iteration
rescontrol,define,last,last,,dele	   ! Program Controlled
/com,****************************************************
/com,******************* SOLVE FOR LS 1 OF 1 ****************
nsel,s,node,,15720
f,all,mz,-14999.9999974574
nsel,all
/nopr
/gopr
/nolist
autots,on                  ! Workbench Program Controlled automatic time stepping
nsub,1,10,1                ! due to presence of general nonlinear
time,1.
outres,erase
outres,all,none
outres,nsol,all,
outres,rsol,all
outres,eangl,all
outres,etmp,all
outres,veng,all
outres,strs,all,
outres,epel,all,
outres,eppl,all,
outres,cont,all,
! *********** WB SOLVE COMMAND ***********
! check interactive state
*get,ANSINTER_,active,,int
*if,ANSINTER_,ne,0,then
/eof
*endif
solve
/com *************** Write FE CONNECTORS ********* 
CEWRITE,file,ce,,INTE
/com,****************************************************
/com,*************** FINISHED SOLVE FOR LS 1 *************
*get,_wallasol,active,,time,wall
/nopr
*get,_numnode,node,0,count
*get,_numelem,elem,0,count
*get, _MAXELEMNUM, elem, 0, NUM, MAX
*get, _MAXNODENUM, node, 0, NUM, MAX,,,INTERNAL
*get, _MAXELEMTYPE, etyp, 0, NUM, MAX
*get, _MAXREALCONST, real, 0, NUM, MAX
/gopr
/post1
xmlo,ENCODING,ISO-8859-1
xmlo,parm
/xml,parm,xml
fini
/gopr
*get,_walldone,active,,time,wall
_preptime=(_wallbsol-_wallstrt)*3600
_solvtime=(_wallasol-_wallbsol)*3600
_posttime=(_walldone-_wallasol)*3600
_totaltim=(_walldone-_wallstrt)*3600
*get,_dlbratio,active,0,solu,dlbr
*get,_combtime,active,0,solu,comb
/com,--- Total number of nodes = %_numnode%
/com,--- Total number of elements = %_numelem%
/com,--- Element load balance ratio = %_dlbratio%
/com,--- Time to combine distributed files = %_combtime%
/wb,file,end               ! done with WB generated input
