/batch
/config,noeldb,1     ! force off writing results to database
*get,_wallstrt,active,,time,wall
! ANSYS input file written by Workbench version 2021 R1
! File used for geometry attach: C:\Users\ASUS\Documents\ANSYS\ANSYS2021\Sec09-1\Finger_files\dp0\SYS\DM\SYS.agdb
/title,Finger--Static Structural (A5)
! ****** Begin Custom Load Command Snippet ******
/COM, ACT Extensions:
/COM,     LSDYNA, 2021.1
/COM,     5f463412-bd3e-484b-87e7-cbc0a665e474, wbex
/COM,
! ****** End   Custom Load Command Snippet ******
*DIM,_wb_ProjectScratch_dir,string,248
_wb_ProjectScratch_dir(1) = 'C:\Users\ASUS\Documents\ANSYS\ANSYS2021\Sec09-1\_ProjectScratch\ScrA489\'
*DIM,_wb_SolverFiles_dir,string,248
_wb_SolverFiles_dir(1) = 'C:\Users\ASUS\Documents\ANSYS\ANSYS2021\Sec09-1\Finger_files\dp0\SYS\MECH\'
*DIM,_wb_userfiles_dir,string,248
_wb_userfiles_dir(1) = 'C:\Users\ASUS\Documents\ANSYS\ANSYS2021\Sec09-1\Finger_files\user_files\'
/com,--- Data in consistent NMM units. See Solving Units in the help system for more information.
/units,MPA
/nopr
/wb,file,start              !  signify a WB generated input file
/prep7
! Turn off shape checking because checks already performed inside WB mesher.
! See help system for more information.
SHPP,OFF,,NOWARN
/nolist
etcon,set             ! allow ANSYS to choose best KEYOP's for 180x elements, resets any applicable keyopt to MAPDL defaults
/com,*********** Nodes for the whole assembly ***********
nblock,3,,21121
(1i9,3e20.9e3)
        1     4.399999988E+01     2.000000047E+00    -4.550000187E+00
        2     4.400000000E+01     2.000000000E+00    -5.100000184E+00
        3     4.320000009E+01     2.000000047E+00    -4.550000092E+00
        4     4.320000000E+01     2.000000095E+00    -5.100000184E+00
        5     4.399999988E+01     2.666666730E+00    -4.550000092E+00
        6     4.399999976E+01     2.666666667E+00    -5.100000184E+00
        7     4.320000009E+01     2.666666730E+00    -4.549999997E+00
        8     4.320000019E+01     2.666666793E+00    -5.100000184E+00
        9     4.399999988E+01     3.333333412E+00    -4.550000092E+00
       10     4.399999976E+01     3.333333333E+00    -5.100000184E+00
       11     4.320000009E+01     3.333333412E+00    -4.549999997E+00
       12     4.320000019E+01     3.333333492E+00    -5.100000184E+00
       13     4.399999988E+01     4.000000095E+00    -4.550000187E+00
       14     4.400000000E+01     4.000000000E+00    -5.100000184E+00
       15     4.320000009E+01     4.000000095E+00    -4.550000092E+00
       16     4.320000000E+01     4.000000190E+00    -5.100000184E+00
       17     4.240000031E+01     2.000000047E+00    -4.550000092E+00
       18     4.240000000E+01     2.000000095E+00    -5.100000184E+00
       19     4.240000031E+01     2.666666730E+00    -4.549999997E+00
       20     4.240000062E+01     2.666666793E+00    -5.100000184E+00
! ... 19182 like lines cut
/wb,elem,start            !  set before creation of elements
/com,*********** Elements for Body 1 "Solid" ***********
et,1,186
keyo,1,2,1          ! set full integration on SOLID186
eblock,19,solid,,3395
(19i9)
        1        1        1        1        0        0        0        0       20        0        1      677      679     4532     4537      678      680     4965     4970
     7757    18103    17115    17206     7753    19201    18427    18509     7751     7755    18415    18426
        1        1        1        1        0        0        0        0       20        0        2      721      725      455      453      722      726      456      454
     7842    18090     7316    17188     7845    19189     7313    18492     7841     7843     7314     7312
        1        1        1        1        0        0        0        0       20        0        3      679      689     4533     4532      680      690     4966     4965
     7780    18102    17104    18103     7776    19200    18416    19201     7755     7778    18417    18415
        1        1        1        1        0        0        0        0       20        0        4      689      699     4543     4533      690      700     4976     4966
     7803    18101    17129    18102     7799    19199    18441    19200     7778     7801    18442    18417
        1        1        1        1        0        0        0        0       20        0        5      699     4575     4545     4543      700     5008     4978     4976
    18100    17221    17134    18101    19198    18520    18446    19199     7801    18521    18447    18442
        1        1        1        1        0        0        0        0       20        0        6      699      697     4577     4575      700      698     5010     5008
     7802    18099    17226    18100     7800    19197    18524    19198     7801     7796    18525    18521
        1        1        1        1        0        0        0        0       20        0        7      697      695     4579     4577      698      696     5012     5010
     7797    18098    17231    18099     7795    19196    18528    19197     7796     7791    18529    18525
        1        1        1        1        0        0        0        0       20        0        8      695      693     4581     4579      696      694     5014     5012
     7792    18097    17236    18098     7790    19195    18532    19196     7791     7785    18533    18529
        1        1        1        1        0        0        0        0       20        0        9      693      691     4583     4581      694      692     5016     5014
     7787    18096    17241    18097     7784    19194    18536    19195     7785     7783    18537    18533
        1        1        1        1        0        0        0        0       20        0       10      691      753     4568     4583      692      754     5001     5016
    18095    17203    17246    18096    19193    18507    18540    19194     7783     7907    18506    18537
! ... 6771 like lines cut
!Material Id = {0FE8549B-A6DB-4A89-92ED-AFBDBD58D923}
/wb,elem,end               !  done creating elements
/com,*********** Send User Defined Coordinate System(s) ***********
csys,0
toffst,273.15,  ! Temperature offset from absolute zero
/com,*********** Set Reference Temperature ***********
tref,22.
/wb,mat,start              !  starting to send materials
/com,*********** Send Materials ***********
MP,EX,1,2,	! tonne s^-2 mm^-1
MP,NUXY,1,0.48,

/wb,mat,end                !  done sending materials
!************************* Model Summary ********************
!Solid,	PDMS,	matid,	1
!************************* End Model Summary ********************
! get the diagonal of the bounding box. Needed later for other things
*get,_xmin,node,,mnloc,x
*get,_ymin,node,,mnloc,y
*get,_zmin,node,,mnloc,z
*get,_xmax,node,,mxloc,x
*get,_ymax,node,,mxloc,y
*get,_zmax,node,,mxloc,z
_ASMDIAG=(_xmax-_xmin)*(_xmax-_xmin)+(_ymax-_ymin)*(_ymax-_ymin)+(_zmax-_zmin)*(_zmax-_zmin)
_ASMDIAG=SQRT(_ASMDIAG)
/wb,contact,start          !  starting to send contact
/wb,contact,end            !  done creating contacts
/golist
/wb,load,start             !  starting to send loads
/com,*********** Fixed Supports ***********
CMBLOCK,_FIXEDSU,NODE,      176
(8i10)
      1729      1730      1731      1732      1733      1734      1735      1736
      1737      1738      1739      1740      1741      1742      1743      1744
      2543      2544      2545      2546      2547      2548      2549      2550
      3172      3173      3174      3175      3176      3177      3178      3179
      3801      3802      3803      3804      3805      3806      3807      3808
      4354      4355      4356      4357      4358      4359      4360      4361
      4787      4788      4789      4790      4791      4792      4793      4794
      5220      5221      5222      5223      5224      5225      5226      5227
      6057      6058      6059      6060      6061      6062      6063      6176
      6177      6178      6179      6180      6181      6182      6183      6184
      6185      6293      6294      6295      6296      6297      6298      6299
      6300      6301      6402      6403      9760      9761      9765      9766
      9769      9770      9773      9774      9777      9778      9781      9782
      9785     11548     11549     11552     11553     11555     11556     11558
     11559     11561     11562     11564     11565     11567     13196     13197
     13200     13201     13203     13204     13206     13207     13209     13210
     13212     13213     13215     14844     14845     14848     14849     14851
     14852     14854     14855     14857     14858     14860     14861     14863
     16432     16433     16436     16437     16439     16440     16442     16443
     16445     16446     16448     16449     16451     17839     17840     17843
     17844     17846     17847     17849     17850     17852     17853     17855
     17856     17858     18999     19001     19003     19005     19007     19009

cmsel,s,_FIXEDSU
d,all,all
nsel,all
/com,********* Frictionless Supports Z *********
CMBLOCK,_FRICSUZ,NODE,     1693
(8i10)
       841       842       843       844       849       850       851       852
       857       858       861       862       865       866       869       870
       873       874       877       878       881       882       885       886
       889       890       893       894       897       898       901       902
       905       906       909       910       913       914       917       918
       921       923       924       927       929       931       933       935
       937       939       941       943       945       947       949       951
       953       955       957       959       960       963       965       967
       969       970       973       975       977       979       981       983
       985       987       989       991       993       995       997       999
      1001      1003      1005      1007      1009      1011      1012      1015
      1017      1019      1021      1023      1025      1027      1029      1031
      1033      1035      1037      1039      1041      1043      1045      1047
      1049      1051      1053      1055      1056      1059      1061      1063
      1065      1067      1068      1069      1070      1075      1076      1079
      1080      1083      1085      1087      1088      1091      1092      1095
      1096      1097      1098      1103      1104      1107      1108      1111
      1112      1115      1116      1117      1118      1123      1124      1127
      1128      1131      1132      1135      1136      1137      1138      1143
      1144      1147      1148      1151      1152      1155      1156      1159
! ... 192 like lines cut
cmsel,s,_FRICSUZ
d,all,uz,0
nsel,all
/com,*********** Define Pressure Using Surface Effect Elements ***********
et,2,154
eblock,10,,,1148
(15i9)
     7084        2        2        2        0     1905     1907     1911     1909    10047    10054     5939     5894
     7085        2        2        2        0     1901     1903     1907     1905    10040    10048    10047     5893
     7086        2        2        2        0     1136     1140     1903     1901     5947    10041    10040     5892
     7087        2        2        2        0     1907     2631     2633     1911    11773    11778     5938    10054
     7088        2        2        2        0     1903     2629     2631     1907    11768    11774    11773    10048
     7089        2        2        2        0     1140     2247     2629     1903     5946    11769    11768    10041
     7090        2        2        2        0     2631     3260     3262     2633    13421    13426     5937    11778
     7091        2        2        2        0     2629     3258     3260     2631    13416    13422    13421    11774
     7092        2        2        2        0     2247     2876     3258     2629     5945    13417    13416    11769
     7093        2        2        2        0     3260     3889     3891     3262    15069    15074     5936    13426
     7094        2        2        2        0     3258     3887     3889     3260    15064    15070    15069    13422
     7095        2        2        2        0     2876     3505     3887     3258     5944    15065    15064    13417
     7096        2        2        2        0     3889      839      840     3891    16606     5942     5935    15074
     7097        2        2        2        0     3887      838      839     3889    16602     5941    16606    15070
     7098        2        2        2        0     3505      837      838     3887     5943     5940    16602    15065
     7099        2        2        2        0     1959     1960     1140     1136    10145    10149     5947     5901
     7100        2        2        2        0     1957     1958     1960     1959    10141    10146    10145     5900
     7101        2        2        2        0     1953     1955     1958     1957    10135    10142    10141     5899
     7102        2        2        2        0     1954     1956     1955     1953     5934    10136    10135     5898
     7103        2        2        2        0     1960     2658     2247     1140    11847    11850     5946    10149
! ... 1129 like lines cut
esel,s,type,,2
keyop,2,7,0                ! Use deformed area for application of load
esel,all
esel,all
/gst,on,on
fini
*get,_numnode,node,0,count
*get,_numelem,elem,0,count
*get, _MAXELEMNUM, elem, 0, NUM, MAX
*get, _MAXNODENUM, node, 0, NUM, MAX
*get, _MAXELEMTYPE, etyp, 0, NUM, MAX
*get, _MAXREALCONST, real, 0, NUM, MAX
/go
/wb,load,end               !  done creating loads
/com,--- Number of total nodes = %_numnode%
/com,--- Number of contact elements = 1148
/com,--- Number of spring elements = 0
/com,--- Number of bearing elements = 0
/com,--- Number of solid elements = 3395
/com,--- Number of condensed parts = 0
/com,--- Number of total elements = %_numelem%
*get,_wallbsol,active,,time,wall
/com,****************************************************************************
/com,*************************    SOLUTION       ********************************
/com,****************************************************************************
/solu
antype,0                   ! static analysis
nlgeom,on                  ! Turn on Large Deformation Effects
_thickRatio=  1     ! Ratio of thick parts in the model
eqsl,pcg,1e-8,,,,,,1
cntr,print,1               ! print out contact info and also make no initial contact an error
dmpoption,emat,no             ! Don't combine emat file for DANSYS
dmpoption,esav,no             ! Don't combine esav file for DANSYS
nldiag,cont,iter           ! print out contact info each equilibrium iteration
rescontrol,define,last,last,,dele	   ! Program Controlled
/com,****************************************************
/com,******************* SOLVE FOR LS 1 OF 1 ****************
esel,s,type,,2
nsle
sf,all,pres,0.18
nsel,all
esel,all
esel,all
/nopr
/gopr
/nolist
autots,on                   ! User turned on automatic time stepping
deltim,0.05,0.01,0.05,OFF
time,1.
outres,erase
outres,all,none
outres,nsol,all,
outres,rsol,all
outres,eangl,all
outres,etmp,all
outres,veng,all
outres,strs,all,
outres,epel,all,
outres,eppl,all,
outres,cont,all,
! *********** WB SOLVE COMMAND ***********
! check interactive state
*get,ANSINTER_,active,,int
*if,ANSINTER_,ne,0,then
/eof
*endif
solve
/com *************** Write FE CONNECTORS ********* 
CEWRITE,file,ce,,INTE
/com,****************************************************
/com,*************** FINISHED SOLVE FOR LS 1 *************
*get,_wallasol,active,,time,wall
/nopr
*get,_numnode,node,0,count
*get,_numelem,elem,0,count
*get, _MAXELEMNUM, elem, 0, NUM, MAX
*get, _MAXNODENUM, node, 0, NUM, MAX,,,INTERNAL
*get, _MAXELEMTYPE, etyp, 0, NUM, MAX
*get, _MAXREALCONST, real, 0, NUM, MAX
/gopr
*get,_PCGITER,active,,solu,cgiter
/post1
xmlo,ENCODING,ISO-8859-1
xmlo,parm
/xml,parm,xml
fini
/gopr
*get,_walldone,active,,time,wall
_preptime=(_wallbsol-_wallstrt)*3600
_solvtime=(_wallasol-_wallbsol)*3600
_posttime=(_walldone-_wallasol)*3600
_totaltim=(_walldone-_wallstrt)*3600
*get,_dlbratio,active,0,solu,dlbr
*get,_combtime,active,0,solu,comb
/com,--- Total number of nodes = %_numnode%
/com,--- Total number of elements = %_numelem%
/com,--- Element load balance ratio = %_dlbratio%
/com,--- Time to combine distributed files = %_combtime%
/wb,file,end               ! done with WB generated input
