/batch
/config,noeldb,1     ! force off writing results to database
*get,_wallstrt,active,,time,wall
! ANSYS input file written by Workbench version 2021 R1
! File used for geometry attach: C:\Users\ASUS\Documents\ANSYS\ANSYS2021\Sec11-2\Building_files\dp0\SYS-1\DM\SYS-1.agdb
/title,Building--Static Structural (B5)
! ****** Begin Custom Load Command Snippet ******
/COM, ACT Extensions:
/COM,     LSDYNA, 2021.1
/COM,     5f463412-bd3e-484b-87e7-cbc0a665e474, wbex
/COM,
! ****** End   Custom Load Command Snippet ******
*DIM,_wb_ProjectScratch_dir,string,248
_wb_ProjectScratch_dir(1) = 'C:\Users\ASUS\Documents\ANSYS\ANSYS2021\Sec11-2\_ProjectScratch\Scr19B4\'
*DIM,_wb_SolverFiles_dir,string,248
_wb_SolverFiles_dir(1) = 'C:\Users\ASUS\Documents\ANSYS\ANSYS2021\Sec11-2\Building_files\dp0\SYS-1\MECH\'
*DIM,_wb_userfiles_dir,string,248
_wb_userfiles_dir(1) = 'C:\Users\ASUS\Documents\ANSYS\ANSYS2021\Sec11-2\Building_files\user_files\'
/com,--- Data in consistent BIN units. See Solving Units in the help system for more information.
/units,BIN
/nopr
/wb,file,start              !  signify a WB generated input file
/prep7
! Turn off shape checking because checks already performed inside WB mesher.
! See help system for more information.
SHPP,OFF,,NOWARN
/nolist
etcon,set             ! allow ANSYS to choose best KEYOP's for 180x elements, resets any applicable keyopt to MAPDL defaults
/com,*********** Nodes for the whole assembly ***********
nblock,3,,965
(1i9,3e20.9e3)
        1     4.800000000E+02     2.400000000E+02     0.000000000E+00
        2     7.200000000E+02     2.400000000E+02     0.000000000E+00
        3     5.100000000E+02     2.400000000E+02     0.000000000E+00
        4     5.400000000E+02     2.400000000E+02     0.000000000E+00
        5     5.700000000E+02     2.400000000E+02     0.000000000E+00
        6     6.000000000E+02     2.400000000E+02     0.000000000E+00
        7     6.300000000E+02     2.400000000E+02     0.000000000E+00
        8     6.600000000E+02     2.400000000E+02     0.000000000E+00
        9     6.900000000E+02     2.400000000E+02     0.000000000E+00
       10     2.400000000E+02     2.400000000E+02     0.000000000E+00
       11     2.700000000E+02     2.400000000E+02     0.000000000E+00
       12     3.000000000E+02     2.400000000E+02     0.000000000E+00
       13     3.300000000E+02     2.400000000E+02     0.000000000E+00
       14     3.600000000E+02     2.400000000E+02     0.000000000E+00
       15     3.900000000E+02     2.400000000E+02     0.000000000E+00
       16     4.200000000E+02     2.400000000E+02     0.000000000E+00
       17     4.500000000E+02     2.400000000E+02     0.000000000E+00
       18     0.000000000E+00     2.400000000E+02     0.000000000E+00
       19     3.000000000E+01     2.400000000E+02     0.000000000E+00
       20     6.000000000E+01     2.400000000E+02     0.000000000E+00
! ... 859 like lines cut
/wb,elem,start            !  set before creation of elements
/com,*********** Elements for Body 1 "Line Body" ***********
et,1,188
keyo,1,3,2
eblock,19,solid,,224
(19i9)
        1        1        1        1        0        0        0        0        3        0      385        1        3      575
        1        1        1        1        0        0        0        0        3        0      386        3        4      576
        1        1        1        1        0        0        0        0        3        0      387        4        5      577
        1        1        1        1        0        0        0        0        3        0      388        5        6      578
        1        1        1        1        0        0        0        0        3        0      389        6        7      579
        1        1        1        1        0        0        0        0        3        0      390        7        8      580
        1        1        1        1        0        0        0        0        3        0      391        8        9      581
        1        1        1        1        0        0        0        0        3        0      392        9        2      582
        1        1        1        1        0        0        0        0        3        0      393       10       11      583
        1        1        1        1        0        0        0        0        3        0      394       11       12      584
        1        1        1        1        0        0        0        0        3        0      395       12       13      585
        1        1        1        1        0        0        0        0        3        0      396       13       14      586
        1        1        1        1        0        0        0        0        3        0      397       14       15      587
        1        1        1        1        0        0        0        0        3        0      398       15       16      588
        1        1        1        1        0        0        0        0        3        0      399       16       17      589
        1        1        1        1        0        0        0        0        3        0      400       17        1      590
        1        1        1        1        0        0        0        0        3        0      401       18       19      591
        1        1        1        1        0        0        0        0        3        0      402       19       20      592
        1        1        1        1        0        0        0        0        3        0      403       20       21      593
        1        1        1        1        0        0        0        0        3        0      404       21       22      594
! ... 205 like lines cut
!Material Id = {66BA75EE-0365-4C46-A414-3370299BDB0D}
/com,*********** Elements for Body 2 "Surface Body" ***********
et,2,181
keyo,2,3,2
eblock,19,solid,,64
(19i9)
        2        2        2        2        0        0        0        0        4        0        1      527      530      526      574
        2        2        2        2        0        0        0        0        4        0        2      574      528      531      527
        2        2        2        2        0        0        0        0        4        0        3      526      529      568      574
        2        2        2        2        0        0        0        0        4        0        4      568      532      528      574
        2        2        2        2        0        0        0        0        4        0        5      526      533      571      529
        2        2        2        2        0        0        0        0        4        0        6      530      534      533      526
        2        2        2        2        0        0        0        0        4        0        7      527      567      570      530
        2        2        2        2        0        0        0        0        4        0        8      531      572      567      527
        2        2        2        2        0        0        0        0        4        0        9      528      537      535      531
        2        2        2        2        0        0        0        0        4        0       10      532      573      537      528
        2        2        2        2        0        0        0        0        4        0       11      529      538      569      568
        2        2        2        2        0        0        0        0        4        0       12      569      536      532      568
        2        2        2        2        0        0        0        0        4        0       13      571      539      538      529
        2        2        2        2        0        0        0        0        4        0       14      570      540      534      530
        2        2        2        2        0        0        0        0        4        0       15      535      541      572      531
        2        2        2        2        0        0        0        0        4        0       16      536      542      573      532
        2        2        2        2        0        0        0        0        4        0       17      533      545      544      571
        2        2        2        2        0        0        0        0        4        0       18      571      544      543      539
        2        2        2        2        0        0        0        0        4        0       19      567      551      550      570
        2        2        2        2        0        0        0        0        4        0       20      570      550      549      540
! ... 45 like lines cut
!Material Id = {7D77A201-8EF3-4181-BC49-5D530F33D5E2}
/com,*********** Elements for Body 3 "Surface Body" ***********
et,3,181
keyo,3,3,2
eblock,19,solid,,64
(19i9)
        3        3        3        3        0        0        0        0        4        0       65      521      481      477      525
        3        3        3        3        0        0        0        0        4        0       66      525      478      482      521
        3        3        3        3        0        0        0        0        4        0       67      477      480      479      525
        3        3        3        3        0        0        0        0        4        0       68      479      483      478      525
        3        3        3        3        0        0        0        0        4        0       69      477      519      484      480
        3        3        3        3        0        0        0        0        4        0       70      481      522      519      477
        3        3        3        3        0        0        0        0        4        0       71      521      486      485      481
        3        3        3        3        0        0        0        0        4        0       72      482      487      486      521
        3        3        3        3        0        0        0        0        4        0       73      478      489      524      482
        3        3        3        3        0        0        0        0        4        0       74      483      490      489      478
        3        3        3        3        0        0        0        0        4        0       75      480      523      520      479
        3        3        3        3        0        0        0        0        4        0       76      520      488      483      479
        3        3        3        3        0        0        0        0        4        0       77      484      491      523      480
        3        3        3        3        0        0        0        0        4        0       78      485      492      522      481
        3        3        3        3        0        0        0        0        4        0       79      524      493      487      482
        3        3        3        3        0        0        0        0        4        0       80      488      494      490      483
        3        3        3        3        0        0        0        0        4        0       81      519      497      496      484
        3        3        3        3        0        0        0        0        4        0       82      484      496      495      491
        3        3        3        3        0        0        0        0        4        0       83      486      503      502      485
        3        3        3        3        0        0        0        0        4        0       84      485      502      501      492
! ... 45 like lines cut
!Material Id = {39A8EE2F-E499-46BD-AE9E-0EDC52DE9BA8}
/com,*********** Elements for Body 4 "Surface Body" ***********
et,4,181
keyo,4,3,2
eblock,19,solid,,64
(19i9)
        4        4        4        4        0        0        0        0        4        0      129      428      431      467      476
        4        4        4        4        0        0        0        0        4        0      130      476      468      432      428
        4        4        4        4        0        0        0        0        4        0      131      467      430      429      476
        4        4        4        4        0        0        0        0        4        0      132      429      433      468      476
        4        4        4        4        0        0        0        0        4        0      133      467      471      434      430
        4        4        4        4        0        0        0        0        4        0      134      431      435      471      467
        4        4        4        4        0        0        0        0        4        0      135      428      465      473      431
        4        4        4        4        0        0        0        0        4        0      136      432      475      465      428
        4        4        4        4        0        0        0        0        4        0      137      468      470      436      432
        4        4        4        4        0        0        0        0        4        0      138      433      437      470      468
        4        4        4        4        0        0        0        0        4        0      139      430      472      466      429
        4        4        4        4        0        0        0        0        4        0      140      466      474      433      429
        4        4        4        4        0        0        0        0        4        0      141      434      438      472      430
        4        4        4        4        0        0        0        0        4        0      142      473      469      435      431
        4        4        4        4        0        0        0        0        4        0      143      436      439      475      432
        4        4        4        4        0        0        0        0        4        0      144      474      440      437      433
        4        4        4        4        0        0        0        0        4        0      145      471      443      442      434
        4        4        4        4        0        0        0        0        4        0      146      434      442      441      438
        4        4        4        4        0        0        0        0        4        0      147      465      449      448      473
        4        4        4        4        0        0        0        0        4        0      148      473      448      447      469
! ... 45 like lines cut
!Material Id = {2CC371CE-5E3C-4DFB-A3C1-365EA1BCC0EC}
/com,*********** Elements for Body 5 "Surface Body" ***********
et,5,181
keyo,5,3,2
eblock,19,solid,,64
(19i9)
        5        5        5        5        0        0        0        0        4        0      193      423      382      379      427
        5        5        5        5        0        0        0        0        4        0      194      427      380      383      423
        5        5        5        5        0        0        0        0        4        0      195      379      381      424      427
        5        5        5        5        0        0        0        0        4        0      196      424      384      380      427
        5        5        5        5        0        0        0        0        4        0      197      379      387      385      381
        5        5        5        5        0        0        0        0        4        0      198      382      388      387      379
        5        5        5        5        0        0        0        0        4        0      199      423      389      386      382
        5        5        5        5        0        0        0        0        4        0      200      383      390      389      423
        5        5        5        5        0        0        0        0        4        0      201      380      422      425      383
        5        5        5        5        0        0        0        0        4        0      202      384      426      422      380
        5        5        5        5        0        0        0        0        4        0      203      381      393      392      424
        5        5        5        5        0        0        0        0        4        0      204      392      391      384      424
        5        5        5        5        0        0        0        0        4        0      205      385      394      393      381
        5        5        5        5        0        0        0        0        4        0      206      386      395      388      382
        5        5        5        5        0        0        0        0        4        0      207      425      396      390      383
        5        5        5        5        0        0        0        0        4        0      208      391      397      426      384
        5        5        5        5        0        0        0        0        4        0      209      387      400      399      385
        5        5        5        5        0        0        0        0        4        0      210      385      399      398      394
        5        5        5        5        0        0        0        0        4        0      211      389      406      405      386
        5        5        5        5        0        0        0        0        4        0      212      386      405      404      395
! ... 45 like lines cut
!Material Id = {09DAC38A-71AF-4532-A2B3-9E67F089E664}
/com,*********** Elements for Body 6 "Surface Body" ***********
et,6,181
keyo,6,3,2
eblock,19,solid,,64
(19i9)
        6        6        6        6        0        0        0        0        4        0      257      331      334      330      378
        6        6        6        6        0        0        0        0        4        0      258      378      332      335      331
        6        6        6        6        0        0        0        0        4        0      259      330      333      372      378
        6        6        6        6        0        0        0        0        4        0      260      372      336      332      378
        6        6        6        6        0        0        0        0        4        0      261      330      373      337      333
        6        6        6        6        0        0        0        0        4        0      262      334      338      373      330
        6        6        6        6        0        0        0        0        4        0      263      331      339      374      334
        6        6        6        6        0        0        0        0        4        0      264      335      340      339      331
        6        6        6        6        0        0        0        0        4        0      265      332      371      376      335
        6        6        6        6        0        0        0        0        4        0      266      336      377      371      332
        6        6        6        6        0        0        0        0        4        0      267      333      375      342      372
        6        6        6        6        0        0        0        0        4        0      268      342      341      336      372
        6        6        6        6        0        0        0        0        4        0      269      337      343      375      333
        6        6        6        6        0        0        0        0        4        0      270      374      344      338      334
        6        6        6        6        0        0        0        0        4        0      271      376      345      340      335
        6        6        6        6        0        0        0        0        4        0      272      341      346      377      336
        6        6        6        6        0        0        0        0        4        0      273      373      349      348      337
        6        6        6        6        0        0        0        0        4        0      274      337      348      347      343
        6        6        6        6        0        0        0        0        4        0      275      339      355      354      374
        6        6        6        6        0        0        0        0        4        0      276      374      354      353      344
! ... 45 like lines cut
!Material Id = {246E3CF2-4128-47CB-AB18-CEC82A0DAD4F}
/com,*********** Elements for Body 7 "Surface Body" ***********
et,7,181
keyo,7,3,2
eblock,19,solid,,64
(19i9)
        7        7        7        7        0        0        0        0        4        0      321      282      286      281      329
        7        7        7        7        0        0        0        0        4        0      322      329      283      287      282
        7        7        7        7        0        0        0        0        4        0      323      281      285      284      329
        7        7        7        7        0        0        0        0        4        0      324      284      288      283      329
        7        7        7        7        0        0        0        0        4        0      325      281      321      289      285
        7        7        7        7        0        0        0        0        4        0      326      286      328      321      281
        7        7        7        7        0        0        0        0        4        0      327      282      325      290      286
        7        7        7        7        0        0        0        0        4        0      328      287      291      325      282
        7        7        7        7        0        0        0        0        4        0      329      283      323      327      287
        7        7        7        7        0        0        0        0        4        0      330      288      326      323      283
        7        7        7        7        0        0        0        0        4        0      331      285      293      324      284
        7        7        7        7        0        0        0        0        4        0      332      324      292      288      284
        7        7        7        7        0        0        0        0        4        0      333      289      294      293      285
        7        7        7        7        0        0        0        0        4        0      334      290      295      328      286
        7        7        7        7        0        0        0        0        4        0      335      327      296      291      287
        7        7        7        7        0        0        0        0        4        0      336      292      297      326      288
        7        7        7        7        0        0        0        0        4        0      337      321      299      322      289
        7        7        7        7        0        0        0        0        4        0      338      289      322      298      294
        7        7        7        7        0        0        0        0        4        0      339      325      305      304      290
        7        7        7        7        0        0        0        0        4        0      340      290      304      303      295
! ... 45 like lines cut
!Material Id = {26614246-BDC6-49F7-A2A6-478DAFFAD1C2}
/com,*********** Elements for Body 8 "Line Body" ***********
et,8,188
keyo,8,3,2
eblock,19,solid,,40
(19i9)
        8        8        8        8        0        0        0        0        3        0      609      135      223      799
        8        8        8        8        0        0        0        0        3        0      610      223      224      800
        8        8        8        8        0        0        0        0        3        0      611      224      225      801
        8        8        8        8        0        0        0        0        3        0      612      225      226      802
        8        8        8        8        0        0        0        0        3        0      613      226      222      803
        8        8        8        8        0        0        0        0        3        0      614      222      231      804
        8        8        8        8        0        0        0        0        3        0      615      231      232      805
        8        8        8        8        0        0        0        0        3        0      616      232      233      806
        8        8        8        8        0        0        0        0        3        0      617      233      234      807
        8        8        8        8        0        0        0        0        3        0      618      234      128      808
        8        8        8        8        0        0        0        0        3        0      619      127      235      809
        8        8        8        8        0        0        0        0        3        0      620      235      236      810
        8        8        8        8        0        0        0        0        3        0      621      236      237      811
        8        8        8        8        0        0        0        0        3        0      622      237      238      812
        8        8        8        8        0        0        0        0        3        0      623      238      222      813
        8        8        8        8        0        0        0        0        3        0      624       34      239      814
        8        8        8        8        0        0        0        0        3        0      625      239      240      815
        8        8        8        8        0        0        0        0        3        0      626      240      241      816
        8        8        8        8        0        0        0        0        3        0      627      241      242      817
        8        8        8        8        0        0        0        0        3        0      628      242      213      818
! ... 21 like lines cut
!Material Id = {81243A74-41A1-44CC-BF8D-61AD11E7BF4E}
/com,*********** Elements for Body 9 "Line Body" ***********
et,9,188
keyo,9,3,2
eblock,19,solid,,40
(19i9)
        9        9        9        9        0        0        0        0        3        0      649        1      273      839
        9        9        9        9        0        0        0        0        3        0      650      273      274      840
        9        9        9        9        0        0        0        0        3        0      651      274      275      841
        9        9        9        9        0        0        0        0        3        0      652      275      276      842
        9        9        9        9        0        0        0        0        3        0      653      276      247      843
        9        9        9        9        0        0        0        0        3        0      654      103      269      844
        9        9        9        9        0        0        0        0        3        0      655      269      270      845
        9        9        9        9        0        0        0        0        3        0      656      270      271      846
        9        9        9        9        0        0        0        0        3        0      657      271      272      847
        9        9        9        9        0        0        0        0        3        0      658      272      256      848
        9        9        9        9        0        0        0        0        3        0      659      247      277      849
        9        9        9        9        0        0        0        0        3        0      660      277      278      850
        9        9        9        9        0        0        0        0        3        0      661      278      279      851
        9        9        9        9        0        0        0        0        3        0      662      279      280      852
        9        9        9        9        0        0        0        0        3        0      663      280      103      853
        9        9        9        9        0        0        0        0        3        0      664      247      248      854
        9        9        9        9        0        0        0        0        3        0      665      248      249      855
        9        9        9        9        0        0        0        0        3        0      666      249      250      856
        9        9        9        9        0        0        0        0        3        0      667      250      251      857
        9        9        9        9        0        0        0        0        3        0      668      251       95      858
! ... 21 like lines cut
!Material Id = {AF7181AB-A7BD-469D-9E76-6735AE2001F6}
/wb,elem,end               !  done creating elements
/com,*********** Send User Defined Coordinate System(s) ***********
csys,0
toffst,459.67,  ! Temperature offset from absolute zero
/com,*********** Set Reference Temperature ***********
tref,71.6
/wb,mat,start              !  starting to send materials
/com,*********** Send Materials ***********
Temperature = 'TEMP' ! Temperature
MP,DENS,1,0.000734544492879577,	! slinch in^-3
MP,ALPX,1,6.66666666666667e-06,	! F^-1
MP,C,1,373722.969668162,	! in^2 s^-2 F^-1
MP,KXX,1,7.55607836445752,	! slinch in s^-3 F^-1
MP,RSVX,1,8.52348993288591,	! ohm cmil in^-1
MP,EX,1,29007547.5428236,	! slinch s^-2 in^-1
MP,NUXY,1,0.3,
MP,MURX,1,10000,

Temperature = 'TEMP' ! Temperature
MP,DENS,2,0.000215216857786373,	! slinch in^-3
MP,ALPX,2,7.77777777777778e-06,	! F^-1
MP,C,2,671668.010002687,	! in^2 s^-2 F^-1
MP,KXX,2,0.0899235772299077,	! slinch in s^-3 F^-1
MP,EX,2,4351132.13142354,	! slinch s^-2 in^-1
MP,NUXY,2,0.18,

Temperature = 'TEMP' ! Temperature
MP,DENS,3,0.000215216857786373,	! slinch in^-3
MP,ALPX,3,7.77777777777778e-06,	! F^-1
MP,C,3,671668.010002687,	! in^2 s^-2 F^-1
MP,KXX,3,0.0899235772299077,	! slinch in s^-3 F^-1
MP,EX,3,4351132.13142354,	! slinch s^-2 in^-1
MP,NUXY,3,0.18,

Temperature = 'TEMP' ! Temperature
MP,DENS,4,0.000215216857786373,	! slinch in^-3
MP,ALPX,4,7.77777777777778e-06,	! F^-1
MP,C,4,671668.010002687,	! in^2 s^-2 F^-1
MP,KXX,4,0.0899235772299077,	! slinch in s^-3 F^-1
MP,EX,4,4351132.13142354,	! slinch s^-2 in^-1
MP,NUXY,4,0.18,

Temperature = 'TEMP' ! Temperature
MP,DENS,5,0.000215216857786373,	! slinch in^-3
MP,ALPX,5,7.77777777777778e-06,	! F^-1
MP,C,5,671668.010002687,	! in^2 s^-2 F^-1
MP,KXX,5,0.0899235772299077,	! slinch in s^-3 F^-1
MP,EX,5,4351132.13142354,	! slinch s^-2 in^-1
MP,NUXY,5,0.18,

Temperature = 'TEMP' ! Temperature
MP,DENS,6,0.000215216857786373,	! slinch in^-3
MP,ALPX,6,7.77777777777778e-06,	! F^-1
MP,C,6,671668.010002687,	! in^2 s^-2 F^-1
MP,KXX,6,0.0899235772299077,	! slinch in s^-3 F^-1
MP,EX,6,4351132.13142354,	! slinch s^-2 in^-1
MP,NUXY,6,0.18,

Temperature = 'TEMP' ! Temperature
MP,DENS,7,0.000215216857786373,	! slinch in^-3
MP,ALPX,7,7.77777777777778e-06,	! F^-1
MP,C,7,671668.010002687,	! in^2 s^-2 F^-1
MP,KXX,7,0.0899235772299077,	! slinch in s^-3 F^-1
MP,EX,7,4351132.13142354,	! slinch s^-2 in^-1
MP,NUXY,7,0.18,

Temperature = 'TEMP' ! Temperature
MP,DENS,8,0.000734544492879577,	! slinch in^-3
MP,ALPX,8,6.66666666666667e-06,	! F^-1
MP,C,8,373722.969668162,	! in^2 s^-2 F^-1
MP,KXX,8,7.55607836445752,	! slinch in s^-3 F^-1
MP,RSVX,8,8.52348993288591,	! ohm cmil in^-1
MP,EX,8,29007547.5428236,	! slinch s^-2 in^-1
MP,NUXY,8,0.3,
MP,MURX,8,10000,

Temperature = 'TEMP' ! Temperature
MP,DENS,9,0.000734544492879577,	! slinch in^-3
MP,ALPX,9,6.66666666666667e-06,	! F^-1
MP,C,9,373722.969668162,	! in^2 s^-2 F^-1
MP,KXX,9,7.55607836445752,	! slinch in s^-3 F^-1
MP,RSVX,9,8.52348993288591,	! ohm cmil in^-1
MP,EX,9,29007547.5428236,	! slinch s^-2 in^-1
MP,NUXY,9,0.3,
MP,MURX,9,10000,

/wb,mat,end                !  done sending materials
/com,*********** Send Sheet Properties ***********
sectype,2,shell
secdata,5.
secoff,mid

sectype,3,shell
secdata,5.
secoff,mid

sectype,4,shell
secdata,5.
secoff,mid

sectype,5,shell
secdata,5.
secoff,mid

sectype,6,shell
secdata,5.
secoff,mid

sectype,7,shell
secdata,5.
secoff,mid

/com,*********** Send Beam Properties ***********
SECTYPE,1,BEAM,I
SECDATA,7.07,7.07,16.25,0.63,0.63,0.38
secoffset,cent

SECTYPE,8,BEAM,L
SECDATA,4.,4.,0.5,0.5
secoffset,cent

SECTYPE,9,BEAM,L
SECDATA,4.,4.,0.5,0.5
secoffset,cent

!************************* Model Summary ********************
!Line Body,	Structural Steel,	matid,	1
!Surface Body,	Concrete,	matid,	2
!Surface Body,	Concrete,	matid,	3
!Surface Body,	Concrete,	matid,	4
!Surface Body,	Concrete,	matid,	5
!Surface Body,	Concrete,	matid,	6
!Surface Body,	Concrete,	matid,	7
!Line Body,	Structural Steel,	matid,	8
!Line Body,	Structural Steel,	matid,	9
!************************* End Model Summary ********************
! get the diagonal of the bounding box. Needed later for other things
*get,_xmin,node,,mnloc,x
*get,_ymin,node,,mnloc,y
*get,_zmin,node,,mnloc,z
*get,_xmax,node,,mxloc,x
*get,_ymax,node,,mxloc,y
*get,_zmax,node,,mxloc,z
_ASMDIAG=(_xmax-_xmin)*(_xmax-_xmin)+(_ymax-_ymin)*(_ymax-_ymin)+(_zmax-_zmin)*(_zmax-_zmin)
_ASMDIAG=SQRT(_ASMDIAG)
/wb,contact,start          !  starting to send contact
/wb,contact,end            !  done creating contacts
/golist
/wb,load,start             !  starting to send loads
CMBLOCK,_CM43_FIXEDSU,NODE,        8
(8i10)
        80        88        96       104       112       120       128       136

/com,*********** Fixed Supports ***********
CMBLOCK,_FIXEDSU,NODE,        8
(8i10)
        80        88        96       104       112       120       128       136

cmsel,s,_FIXEDSU
d,all,all
nsel,all
/com,*********** Define Pressure Using Surface Effect Elements ***********
et,10,154
eblock,10,,,384
(15i9)
      689       10       10       10        0      527      530      526      574
      690       10       10       10        0      574      528      531      527
      691       10       10       10        0      526      529      568      574
      692       10       10       10        0      568      532      528      574
      693       10       10       10        0      526      533      571      529
      694       10       10       10        0      530      534      533      526
      695       10       10       10        0      527      567      570      530
      696       10       10       10        0      531      572      567      527
      697       10       10       10        0      528      537      535      531
      698       10       10       10        0      532      573      537      528
      699       10       10       10        0      529      538      569      568
      700       10       10       10        0      569      536      532      568
      701       10       10       10        0      571      539      538      529
      702       10       10       10        0      570      540      534      530
      703       10       10       10        0      535      541      572      531
      704       10       10       10        0      536      542      573      532
      705       10       10       10        0      533      545      544      571
      706       10       10       10        0      571      544      543      539
      707       10       10       10        0      567      551      550      570
      708       10       10       10        0      570      550      549      540
! ... 365 like lines cut
esel,s,type,,10
keyop,10,7,0                ! Use deformed area for application of load
esel,all
esel,all
/gst,on,on
fini
*get,_numnode,node,0,count
*get,_numelem,elem,0,count
*get, _MAXELEMNUM, elem, 0, NUM, MAX
*get, _MAXNODENUM, node, 0, NUM, MAX
*get, _MAXELEMTYPE, etyp, 0, NUM, MAX
*get, _MAXREALCONST, real, 0, NUM, MAX
/go
/wb,load,end               !  done creating loads
/com,--- Number of total nodes = %_numnode%
/com,--- Number of contact elements = 384
/com,--- Number of spring elements = 0
/com,--- Number of bearing elements = 0
/com,--- Number of solid elements = 688
/com,--- Number of condensed parts = 0
/com,--- Number of total elements = %_numelem%
*get,_wallbsol,active,,time,wall
/com,****************************************************************************
/com,*************************    SOLUTION       ********************************
/com,****************************************************************************
/solu
antype,0                   ! static analysis
nlgeom,on                  ! Turn on Large Deformation Effects
_thickRatio=  0     ! Ratio of thick parts in the model
eqsl,sparse,,,,,1
cntr,print,1               ! print out contact info and also make no initial contact an error
nldiag,cont,iter           ! print out contact info each equilibrium iteration
rescontrol,define,last           ! Turn on restart files due to future eigen analysis intent
/com,****************************************************
/com,******************* SOLVE FOR LS 1 OF 1 ****************
esel,s,type,,10
nsle
sf,all,pres,0.347222222326302
nsel,all
esel,all
acel,0.,386.088582677165,0.
esel,all
/nopr
/gopr
/nolist
autots,on                  ! Workbench Program Controlled automatic time stepping
nsub,1,10,1                ! due to presence of general nonlinear
time,1.
outres,erase
outres,all,none
outres,nsol,all,
outres,rsol,all
outres,eangl,all
outres,etmp,all
outres,veng,all
outres,strs,all,
outres,epel,all,
outres,eppl,all,
outres,cont,all,
/nopr
esel,s,type,,1
esel,a,type,,8,9
cm,_elmisc,elem
esel,all
/gopr
outres,misc,all,_elmisc
! *********** WB SOLVE COMMAND ***********
! check interactive state
*get,ANSINTER_,active,,int
*if,ANSINTER_,ne,0,then
/eof
*endif
solve
/com *************** Write FE CONNECTORS ********* 
CEWRITE,file,ce,,INTE
/com,****************************************************
/com,*************** FINISHED SOLVE FOR LS 1 *************
*get,_wallasol,active,,time,wall
/nopr
*get,_numnode,node,0,count
*get,_numelem,elem,0,count
*get, _MAXELEMNUM, elem, 0, NUM, MAX
*get, _MAXNODENUM, node, 0, NUM, MAX,,,INTERNAL
*get, _MAXELEMTYPE, etyp, 0, NUM, MAX
*get, _MAXREALCONST, real, 0, NUM, MAX
/gopr
/post1
xmlo,ENCODING,ISO-8859-1
xmlo,parm
/xml,parm,xml
fini
/gopr
*get,_walldone,active,,time,wall
_preptime=(_wallbsol-_wallstrt)*3600
_solvtime=(_wallasol-_wallbsol)*3600
_posttime=(_walldone-_wallasol)*3600
_totaltim=(_walldone-_wallstrt)*3600
*get,_dlbratio,active,0,solu,dlbr
*get,_combtime,active,0,solu,comb
/com,--- Total number of nodes = %_numnode%
/com,--- Total number of elements = %_numelem%
/com,--- Element load balance ratio = %_dlbratio%
/com,--- Time to combine distributed files = %_combtime%
/wb,file,end               ! done with WB generated input
