/batch
/config,noeldb,1     ! force off writing results to database
*get,_wallstrt,active,,time,wall
! ANSYS input file written by Workbench version 2021 R1
! File used for geometry attach: C:\Users\ASUS\Documents\ANSYS\ANSYS2021\Sec11-1\Gearbox_files\dp0\SYS\DM\SYS.agdb
/title,Gearbox--Static Structural (A5)
! ****** Begin Custom Load Command Snippet ******
/COM, ACT Extensions:
/COM,     LSDYNA, 2021.1
/COM,     5f463412-bd3e-484b-87e7-cbc0a665e474, wbex
/COM,
! ****** End   Custom Load Command Snippet ******
*DIM,_wb_ProjectScratch_dir,string,248
_wb_ProjectScratch_dir(1) = 'C:\Users\ASUS\Documents\ANSYS\ANSYS2021\Sec11-1\_ProjectScratch\Scr4E78\'
*DIM,_wb_SolverFiles_dir,string,248
_wb_SolverFiles_dir(1) = 'C:\Users\ASUS\Documents\ANSYS\ANSYS2021\Sec11-1\Gearbox_files\dp0\SYS\MECH\'
*DIM,_wb_userfiles_dir,string,248
_wb_userfiles_dir(1) = 'C:\Users\ASUS\Documents\ANSYS\ANSYS2021\Sec11-1\Gearbox_files\user_files\'
/com,--- Data in consistent NMM units. See Solving Units in the help system for more information.
/units,MPA
/nopr
/wb,file,start              !  signify a WB generated input file
/prep7
! Turn off shape checking because checks already performed inside WB mesher.
! See help system for more information.
SHPP,OFF,,NOWARN
/nolist
etcon,set             ! allow ANSYS to choose best KEYOP's for 180x elements, resets any applicable keyopt to MAPDL defaults
/com,*********** Nodes for the whole assembly ***********
nblock,3,,17934
(1i9,3e20.9e3)
        1    -1.932258065E+02    -1.700000000E+02    -7.363636364E+01
        2    -1.932258065E+02    -1.700000000E+02    -5.727272727E+01
        3    -1.932258065E+02    -1.700000000E+02    -4.090909091E+01
        4    -1.932258065E+02    -1.700000000E+02    -2.454545455E+01
        5    -1.932258065E+02    -1.700000000E+02    -8.181818182E+00
        6    -1.932258065E+02    -1.700000000E+02     8.181818182E+00
        7    -1.932258065E+02    -1.700000000E+02     2.454545455E+01
        8    -1.932258065E+02    -1.700000000E+02     4.090909091E+01
        9    -1.932258065E+02    -1.700000000E+02     5.727272727E+01
       10    -1.932258065E+02    -1.700000000E+02     7.363636364E+01
       11    -1.764516129E+02    -1.700000000E+02    -7.363636364E+01
       12    -1.764516129E+02    -1.700000000E+02    -5.727272727E+01
       13    -1.764516129E+02    -1.700000000E+02    -4.090909091E+01
       14    -1.764516129E+02    -1.700000000E+02    -2.454545455E+01
       15    -1.764516129E+02    -1.700000000E+02    -8.181818182E+00
       16    -1.764516129E+02    -1.700000000E+02     8.181818182E+00
       17    -1.764516129E+02    -1.700000000E+02     2.454545455E+01
       18    -1.764516129E+02    -1.700000000E+02     4.090909091E+01
       19    -1.764516129E+02    -1.700000000E+02     5.727272727E+01
       20    -1.764516129E+02    -1.700000000E+02     7.363636364E+01
! ... 16285 like lines cut
/wb,elem,start            !  set before creation of elements
/com,*********** Elements for Body 1 "Housing" ***********
et,1,181
keyo,1,3,2
eblock,19,solid,,1221
(19i9)
        1        1        1        1        0        0        0        0        4        0    10992    16185    15030    16186    16186
        1        1        1        1        0        0        0        0        4        0    10993    16193    16192    16264    16264
        1        1        1        1        0        0        0        0        4        0    10994    16278    16007    16272    16272
        1        1        1        1        0        0        0        0        4        0    10995    16008    15993    15994    15994
        1        1        1        1        0        0        0        0        4        0    10996    16002    16001    16003    16003
        1        1        1        1        0        0        0        0        4        0    10997    15958    15956    15999    15999
        1        1        1        1        0        0        0        0        4        0    10998    15955    15954    15978    15978
        1        1        1        1        0        0        0        0        4        0    11580    15589    15232    15590    15590
        1        1        1        1        0        0        0        0        4        0    11581    15588    15494    15627    15627
        1        1        1        1        0        0        0        0        4        0    11582    15394    15406    15405    15405
        1        1        1        1        0        0        0        0        4        0    11583    15497    15614    15498    15498
        1        1        1        1        0        0        0        0        4        0    11584    15333    15339    15655    15655
        1        1        1        1        0        0        0        0        4        0    11585    15496    15498    15643    15643
        1        1        1        1        0        0        0        0        4        0    11586    15375    15636    15298    15298
        1        1        1        1        0        0        0        0        4        0    11587    15351    15307    15316    15316
        1        1        1        1        0        0        0        0        4        0    11588    15322    15301    15303    15303
        1        1        1        1        0        0        0        0        4        0    10999    16111    16110    15924    15923
        1        1        1        1        0        0        0        0        4        0    11000    16280    16111    15923    16258
        1        1        1        1        0        0        0        0        4        0    11001    15925    16261    16258    15923
        1        1        1        1        0        0        0        0        4        0    11002    15926    15925    15923    15924
! ... 1202 like lines cut
!Material Id = {5544B226-F30E-4B11-8F0E-A03A1A7FC28B}
/com,*********** Elements for Body 2 "Flange" ***********
et,2,187
eblock,19,solid,,7024
(19i9)
        2        2        2        2        0        0        0        0       10        0      342     3980     3988     4585     4568    13276    13309    13280    13278
    13308    15025
        2        2        2        2        0        0        0        0       10        0      343     3988     4069     4585     4568    13306    13707    13309    13308
    13704    15025
        2        2        2        2        0        0        0        0       10        0      344     2930     4585     3988     4069     6892    13309     6890     6891
    13707    13306
        2        2        2        2        0        0        0        0       10        0      345     2930     4585     3980     3988     6892    13280     6889     6890
    13309    13276
        2        2        2        2        0        0        0        0       10        0      346     3767     3936     4585     4447    12285    13133    12290    12289
    13131    14920
        2        2        2        2        0        0        0        0       10        0      347     3767     3990     4585     3936    12286    13313    12290    12285
    13130    13133
        2        2        2        2        0        0        0        0       10        0      348     4069     4585     4568     4572    13707    15025    13704    13706
    15026    15024
        2        2        2        2        0        0        0        0       10        0      349     3980     4568     4585     4572    13278    15025    13280    13279
    15024    15026
        2        2        2        2        0        0        0        0       10        0      350     2930     3765     4585     4069     6888    12278     6892     6891
    12277    13707
        2        2        2        2        0        0        0        0       10        0      351     4069     4447     4585     4572    13703    14920    13707    13706
    14919    15026
! ... 14029 like lines cut
!Material Id = {46DF644E-42D8-493F-9DAF-D0E2EA9D7CA3}
/com,*********** Elements for Body 3 "Base" ***********
et,3,186
keyo,3,2,1          ! set full integration on SOLID186
eblock,19,solid,,341
(19i9)
        3        3        3        3        0        0        0        0       20        0        1      300      726      727      728      301      643      642      641
     1707     2559     2560     1708     1712     2432     2430     1711     1706     2435     2433     2431
        3        3        3        3        0        0        0        0       20        0        2      290      300      728      729      311      301      641      640
     1675     1708     2561     1677     1710     1711     2428     1742     1676     1706     2431     2429
        3        3        3        3        0        0        0        0       20        0        3      280      290      729      730      321      311      640      639
     1644     1677     2562     1646     1741     1742     2426     1763     1645     1676     2429     2427
        3        3        3        3        0        0        0        0       20        0        4      270      280      730      731      331      321      639      638
     1613     1646     2563     1615     1762     1763     2424     1784     1614     1645     2427     2425
        3        3        3        3        0        0        0        0       20        0        5      260      270      731      732      341      331      638      637
     1582     1615     2564     1584     1783     1784     2422     1805     1583     1614     2425     2423
        3        3        3        3        0        0        0        0       20        0        6      250      260      732      733      351      341      637      636
     1551     1584     2565     1553     1804     1805     2420     1826     1552     1583     2423     2421
        3        3        3        3        0        0        0        0       20        0        7      240      250      733      734      361      351      636      635
     1520     1553     2566     1522     1825     1826     2418     1847     1521     1552     2421     2419
        3        3        3        3        0        0        0        0       20        0        8      230      240      734      735      371      361      635      634
     1489     1522     2567     1491     1846     1847     2416     1868     1490     1521     2419     2417
        3        3        3        3        0        0        0        0       20        0        9      220      230      735      736      381      371      634      633
     1458     1491     2568     1460     1867     1868     2414     1889     1459     1490     2417     2415
        3        3        3        3        0        0        0        0       20        0       10      210      220      736      737      391      381      633      632
     1427     1460     2569     1429     1888     1889     2412     1910     1428     1459     2415     2413
! ... 663 like lines cut
!Material Id = {F3AFECF8-6D24-45A3-BEEE-5ED6C6058752}
/wb,elem,end               !  done creating elements
/com,*********** Send User Defined Coordinate System(s) ***********
csys,0
toffst,273.15,  ! Temperature offset from absolute zero
/com,*********** Set Reference Temperature ***********
tref,22.
/wb,mat,start              !  starting to send materials
/com,*********** Send Materials ***********
Temperature = 'TEMP' ! Temperature
MP,DENS,1,7.75e-09,	! tonne mm^-3
MP,ALPX,1,1.7e-05,	! C^-1
MP,C,1,480000000,	! mm^2 s^-2 C^-1
MP,KXX,1,15.1,	! tonne mm s^-3 C^-1
MP,RSVX,1,0.00077,	! ohm mm
MP,EX,1,193000,	! tonne s^-2 mm^-1
MP,NUXY,1,0.31,
MP,MURX,1,1,

Temperature = 'TEMP' ! Temperature
MP,DENS,2,7.2e-09,	! tonne mm^-3
MP,ALPX,2,1.1e-05,	! C^-1
MP,C,2,447000000,	! mm^2 s^-2 C^-1
MP,KXX,2,52,	! tonne mm s^-3 C^-1
MP,RSVX,2,9.6e-05,	! ohm mm
MP,EX,2,110000,	! tonne s^-2 mm^-1
MP,NUXY,2,0.28,
MP,MURX,2,10000,

Temperature = 'TEMP' ! Temperature
MP,DENS,3,7.2e-09,	! tonne mm^-3
MP,ALPX,3,1.1e-05,	! C^-1
MP,C,3,447000000,	! mm^2 s^-2 C^-1
MP,KXX,3,52,	! tonne mm s^-3 C^-1
MP,RSVX,3,9.6e-05,	! ohm mm
MP,EX,3,110000,	! tonne s^-2 mm^-1
MP,NUXY,3,0.28,
MP,MURX,3,10000,

/wb,mat,end                !  done sending materials
/com,*********** Send Sheet Properties ***********
sectype,1,shell
secdata,3.
secoff,mid

!************************* Model Summary ********************
!Housing,	Stainless Steel,	matid,	1
!Flange,	Gray Cast Iron,	matid,	2
!Base,	Gray Cast Iron,	matid,	3
!************************* End Model Summary ********************
! get the diagonal of the bounding box. Needed later for other things
*get,_xmin,node,,mnloc,x
*get,_ymin,node,,mnloc,y
*get,_zmin,node,,mnloc,z
*get,_xmax,node,,mxloc,x
*get,_ymax,node,,mxloc,y
*get,_zmax,node,,mxloc,z
_ASMDIAG=(_xmax-_xmin)*(_xmax-_xmin)+(_ymax-_ymin)*(_ymax-_ymin)+(_zmax-_zmin)*(_zmax-_zmin)
_ASMDIAG=SQRT(_ASMDIAG)
/wb,contact,start          !  starting to send contact
/com,*********** Create Contact "Contact Region" ***********
/com,            Real Constant Set For Above Contact Is 5 & 4 
*set,tid,5
*set,cid,4
r,tid
r,cid
et,tid,170
et,cid,174
eblock,10,,,243
(15i9)
    12213        5        5        5        0    16185    15030    16186    16186
    12214        5        5        5        0    16008    15993    15994    15994
    12215        5        5        5        0    16143    16141    15052    15053
    12216        5        5        5        0    16143    16065    16092    16141
    12217        5        5        5        0    16156    15048    15049    16139
    12218        5        5        5        0    15042    15043    16183    16182
    12219        5        5        5        0    16181    16173    15042    16182
    12220        5        5        5        0    15934    15936    15950    15931
    12221        5        5        5        0    15934    15931    15957    15969
    12222        5        5        5        0    15931    15950    15963    15957
    12223        5        5        5        0    15941    16012    15950    15936
    12224        5        5        5        0    16168    16167    16012    15941
    12225        5        5        5        0    16012    16028    15963    15950
    12226        5        5        5        0    15963    15962    16017    15957
    12227        5        5        5        0    15962    16269    16020    16017
    12228        5        5        5        0    15962    16289    16013    16269
    12229        5        5        5        0    16017    16019    15969    15957
    12230        5        5        5        0    15963    16028    16289    15962
    12231        5        5        5        0    15967    16021    16020    16269
    12232        5        5        5        0    15968    16018    15973    16014
! ... 224 like lines cut
eblock,10,,,243
(15i9)
    12456        4        4        4        0    16185    15030    16186    16186
    12457        4        4        4        0    16008    15993    15994    15994
    12458        4        4        4        0    16143    16141    15052    15053
    12459        4        4        4        0    16143    16065    16092    16141
    12460        4        4        4        0    16156    15048    15049    16139
    12461        4        4        4        0    15042    15043    16183    16182
    12462        4        4        4        0    16181    16173    15042    16182
    12463        4        4        4        0    15934    15936    15950    15931
    12464        4        4        4        0    15934    15931    15957    15969
    12465        4        4        4        0    15931    15950    15963    15957
    12466        4        4        4        0    15941    16012    15950    15936
    12467        4        4        4        0    16168    16167    16012    15941
    12468        4        4        4        0    16012    16028    15963    15950
    12469        4        4        4        0    15963    15962    16017    15957
    12470        4        4        4        0    15962    16269    16020    16017
    12471        4        4        4        0    15962    16289    16013    16269
    12472        4        4        4        0    16017    16019    15969    15957
    12473        4        4        4        0    15963    16028    16289    15962
    12474        4        4        4        0    15967    16021    16020    16269
    12475        4        4        4        0    15968    16018    15973    16014
! ... 224 like lines cut
eblock,10,,,350
(15i9)
    12699        4        5        4        0     2625     2675     2634     2634     4767     4830     2634     4765
    12700        4        5        4        0     2632     2633     2676     2676     4817     4825     2676     4818
    12701        4        5        4        0     2647     2682     2683     2683     4938     5151     2683     4939
    12702        4        5        4        0     2647     2648     2682     2682     4937     4947     2682     4938
    12703        4        5        4        0     2645     2646     2683     2683     4925     4933     2683     4926
    12704        4        5        4        0     2628     2629     2678     2678     4793     4801     2678     4795
    12705        4        5        4        0     2628     2678     2679     2679     4795     5128     2679     4796
    12706        4        5        4        0     2621     2643     2685     2685     4720     4915     2685     4721
    12707        4        5        4        0     2627     2628     2679     2679     4785     4796     2679     4787
    12708        4        5        4        0     2644     2645     2684     2684     4919     4927     2684     4920
    12709        4        5        4        0     2645     2683     2684     2684     4926     5157     2684     4927
    12710        4        5        4        0     2646     2647     2683     2683     4932     4939     2683     4933
    12711        4        5        4        0     2693     2701     3707     3707     5223     5283     3707     5226
    12712        4        5        4        0     2704     3707     2705     2705     5315     5322     2705     5312
    12713        4        5        4        0     2686     3708     2692     2692     5176     5216     2692     5172
    12714        4        5        4        0     2706     2718     3708     3708     5329     5411     3708     5332
    12715        4        5        4        0     2627     3709     2733     2733     4789     5520     2733     4788
    12716        4        5        4        0     2640     2725     3709     3709     4887     5465     3709     4888
    12717        4        5        4        0     2732     2733     3710     3710     5514     5521     3710     5515
    12718        4        5        4        0     2724     3710     2725     2725     5459     5466     2725     5458
! ... 331 like lines cut
eblock,10,,,350
(15i9)
    13049        5        4        5        0     2625     2675     2634     2634     4767     4830     2634     4765
    13050        5        4        5        0     2632     2633     2676     2676     4817     4825     2676     4818
    13051        5        4        5        0     2647     2682     2683     2683     4938     5151     2683     4939
    13052        5        4        5        0     2647     2648     2682     2682     4937     4947     2682     4938
    13053        5        4        5        0     2645     2646     2683     2683     4925     4933     2683     4926
    13054        5        4        5        0     2628     2629     2678     2678     4793     4801     2678     4795
    13055        5        4        5        0     2628     2678     2679     2679     4795     5128     2679     4796
    13056        5        4        5        0     2621     2643     2685     2685     4720     4915     2685     4721
    13057        5        4        5        0     2627     2628     2679     2679     4785     4796     2679     4787
    13058        5        4        5        0     2644     2645     2684     2684     4919     4927     2684     4920
    13059        5        4        5        0     2645     2683     2684     2684     4926     5157     2684     4927
    13060        5        4        5        0     2646     2647     2683     2683     4932     4939     2683     4933
    13061        5        4        5        0     2693     2701     3707     3707     5223     5283     3707     5226
    13062        5        4        5        0     2704     3707     2705     2705     5315     5322     2705     5312
    13063        5        4        5        0     2686     3708     2692     2692     5176     5216     2692     5172
    13064        5        4        5        0     2706     2718     3708     3708     5329     5411     3708     5332
    13065        5        4        5        0     2627     3709     2733     2733     4789     5520     2733     4788
    13066        5        4        5        0     2640     2725     3709     3709     4887     5465     3709     4888
    13067        5        4        5        0     2732     2733     3710     3710     5514     5521     3710     5515
    13068        5        4        5        0     2724     3710     2725     2725     5459     5466     2725     5458
! ... 331 like lines cut
keyo,cid,8,2               ! auto create asymmetric contact (from Program Controlled setting)
keyo,cid,10,0              ! adjust contact stiffness each NR iteration (from Program Controlled setting)
keyo,cid,12,5              ! bonded always
keyo,cid,18,1              ! small sliding turned on by application
keyo,cid,2,0               ! augmented Lagrange (from Program Controlled setting)
keyo,cid,4,0               ! on Gauss point (from Program Controlled setting)
keyo,cid,9,1               ! ignore initial gaps/penetration
keyo,cid,7,0               ! No Prediction
rmod,tid,3,10.      ! FKN
rmod,tid,5,0.       ! ICONT
rmod,tid,6,-1.7234141104491   ! PINB
rmod,tid,10,0.      ! CNOF
rmod,tid,12,0.      ! FKT
rmod,tid,36,32      ! WB DSID
rmod,cid,3,10.      ! FKN
rmod,cid,5,0.       ! ICONT
rmod,cid,6,-1.7234141104491   ! PINB
rmod,cid,10,0.      ! CNOF
rmod,cid,12,0.      ! FKT
rmod,cid,36,32      ! WB DSID
/com,*********** Create Contact "Bonded - Housing To Base" ***********
/com,            Real Constant Set For Above Contact Is 7 & 6 
*set,tid,7
*set,cid,6
r,tid
r,cid
et,tid,170
et,cid,175
mat,6
real,6
type,6
en,13399,15064
en,13400,15109
en,13401,15119
en,13402,15120
en,13403,15121
en,13404,15122
en,13405,15123
en,13406,15124
en,13407,15125
en,13408,15126
en,13409,15127
en,13410,15128
en,13411,15129
en,13412,15130
en,13413,15131
en,13414,15132
en,13415,15133
en,13416,15134
en,13417,15135
en,13418,15136
! ... 44 like lines cut
eblock,10,,,341
(15i9)
    13463        7        6        7        0      726      300      728      727     1707     1708     2560     2559
    13464        7        6        7        0      300      290      729      728     1675     1677     2561     1708
    13465        7        6        7        0      290      280      730      729     1644     1646     2562     1677
    13466        7        6        7        0      280      270      731      730     1613     1615     2563     1646
    13467        7        6        7        0      270      260      732      731     1582     1584     2564     1615
    13468        7        6        7        0      260      250      733      732     1551     1553     2565     1584
    13469        7        6        7        0      250      240      734      733     1520     1522     2566     1553
    13470        7        6        7        0      240      230      735      734     1489     1491     2567     1522
    13471        7        6        7        0      230      220      736      735     1458     1460     2568     1491
    13472        7        6        7        0      220      210      737      736     1427     1429     2569     1460
    13473        7        6        7        0      210      200      738      737     1396     1398     2570     1429
    13474        7        6        7        0      200      190      739      738     1365     1367     2571     1398
    13475        7        6        7        0      190      180      740      739     1334     1336     2572     1367
    13476        7        6        7        0      180      170      741      740     1303     1305     2573     1336
    13477        7        6        7        0      170      160      742      741     1272     1274     2574     1305
    13478        7        6        7        0      160      150      743      742     1241     1243     2575     1274
    13479        7        6        7        0      150      140      744      743     1210     1212     2576     1243
    13480        7        6        7        0      140      130      745      744     1179     1181     2577     1212
    13481        7        6        7        0      130      120      746      745     1148     1150     2578     1181
    13482        7        6        7        0      120      110      747      746     1117     1119     2579     1150
! ... 322 like lines cut
keyo,cid,10,0              ! adjust contact stiffness each NR iteration (from Program Controlled setting)
keyo,cid,12,5              ! bonded always
keyo,cid,18,1              ! small sliding turned on by application
keyo,cid,2,0               ! augmented Lagrange (from Program Controlled setting)
keyo,cid,9,1               ! ignore initial gaps/penetration
keyo,cid,7,0               ! No Prediction
rmod,cid,3,10.      ! FKN
rmod,cid,5,0.       ! ICONT
rmod,cid,6,1.       ! PINB
rmod,cid,10,0.      ! CNOF
rmod,cid,12,0.      ! FKT
rmod,cid,36,39      ! WB DSID
nsel,all
esel,all
/wb,contact,end            !  done creating contacts
/golist
/wb,load,start             !  starting to send loads
CMBLOCK,_CM43_FIXEDSU,NODE,     1108
(8i10)
       301       302       303       304       305       306       307       308
       309       310       311       312       313       314       315       316
       317       318       319       320       321       322       323       324
       325       326       327       328       329       330       331       332
       333       334       335       336       337       338       339       340
       341       342       343       344       345       346       347       348
       349       350       351       352       353       354       355       356
       357       358       359       360       361       362       363       364
       365       366       367       368       369       370       371       372
       373       374       375       376       377       378       379       380
       381       382       383       384       385       386       387       388
       389       390       391       392       393       394       395       396
       397       398       399       400       401       402       403       404
       405       406       407       408       409       410       411       412
       413       414       415       416       417       418       419       420
       421       422       423       424       425       426       427       428
       429       430       431       432       433       434       435       436
       437       438       439       440       441       442       443       444
       445       446       447       448       449       450       451       452
       453       454       455       456       457       458       459       460
! ... 119 like lines cut
/com,*********** Fixed Supports ***********
CMBLOCK,_FIXEDSU,NODE,     1108
(8i10)
       301       302       303       304       305       306       307       308
       309       310       311       312       313       314       315       316
       317       318       319       320       321       322       323       324
       325       326       327       328       329       330       331       332
       333       334       335       336       337       338       339       340
       341       342       343       344       345       346       347       348
       349       350       351       352       353       354       355       356
       357       358       359       360       361       362       363       364
       365       366       367       368       369       370       371       372
       373       374       375       376       377       378       379       380
       381       382       383       384       385       386       387       388
       389       390       391       392       393       394       395       396
       397       398       399       400       401       402       403       404
       405       406       407       408       409       410       411       412
       413       414       415       416       417       418       419       420
       421       422       423       424       425       426       427       428
       429       430       431       432       433       434       435       436
       437       438       439       440       441       442       443       444
       445       446       447       448       449       450       451       452
       453       454       455       456       457       458       459       460
! ... 119 like lines cut
cmsel,s,_FIXEDSU
d,all,all
nsel,all
/com,*********** Define Force Using Surface Effect Elements ***********
local,12,0,0.,0.,0.,0.,0.,0.
csys,0
et,8,154
eblock,10,,,206
(15i9)
    13804        8        8        8       12     3011     3000     3480     3480     7371     7372     3480     7447
    13805        8        8        8       12     3093     3104     3479     3479     8005     8080     3479     8006
    13806        8        8        8       12     3479     3104     3481     3481     8080     8081     3481    10514
    13807        8        8        8       12     3479     3481     3482     3482    10514    10532     3482    10515
    13808        8        8        8       12     3093     3479     3483     3483     8006    10516     3483     8007
    13809        8        8        8       12     3483     3479     3484     3484    10516    10517     3484    10548
    13810        8        8        8       12     3093     3483     3094     3094     8007     8012     3094     8004
    13811        8        8        8       12     3094     3483     3485     3485     8012    10549     3485     8013
    13812        8        8        8       12     3485     3483     3486     3486    10549    10550     3486    10565
    13813        8        8        8       12     3094     3485     3095     3095     8013     8019     3095     8011
    13814        8        8        8       12     3481     3104     3103     3103     8081     8073     3103     8074
    13815        8        8        8       12     3481     3103     3487     3487     8074     8075     3487    10533
    13816        8        8        8       12     3481     3487     3488     3488    10533    10578     3488    10534
    13817        8        8        8       12     3487     3103     3102     3102     8075     8067     3102     8068
    13818        8        8        8       12     3011     3480     3489     3489     7447    10524     3489     7448
    13819        8        8        8       12     3489     3480     3490     3490    10524    10525     3490    10596
    13820        8        8        8       12     3011     3489     3010     3010     7448     7441     3010     7440
    13821        8        8        8       12     3010     3489     3491     3491     7441    10597     3491     7442
    13822        8        8        8       12     3491     3489     3492     3492    10597    10598     3492    10613
    13823        8        8        8       12     3010     3491     3009     3009     7442     7433     3009     7432
! ... 187 like lines cut
esel,s,type,,8
keyop,8,2,1                ! Apply load in local coordinate system
keyop,8,7,1                ! Use original area so load is constant in large deformation
esel,all
/com,*********** Define Force Using Surface Effect Elements ***********
local,13,0,0.,0.,0.,0.,0.,0.
csys,0
et,9,154
eblock,10,,,124
(15i9)
    14010        9        9        9       13     2674     2685     3570     3570     5105     5167     3570     5106
    14011        9        9        9       13     2661     2650     3571     3571     4957     4958     3571     5022
    14012        9        9        9       13     2661     3571     3572     3572     5022    11170     3572     5023
    14013        9        9        9       13     3572     3571     3573     3573    11170    11171     3573    11177
    14014        9        9        9       13     3571     2650     3574     3574     4958     4959     3574    11172
    14015        9        9        9       13     3571     3574     3575     3575    11172    11190     3575    11173
    14016        9        9        9       13     3574     2650     2651     2651     4959     4956     2651     4964
    14017        9        9        9       13     3574     2651     3576     3576     4964     4965     3576    11191
    14018        9        9        9       13     3574     3576     3577     3577    11191    11205     3577    11192
    14019        9        9        9       13     2661     3572     2660     2660     5023     5017     2660     5016
    14020        9        9        9       13     2660     3572     3578     3578     5017    11178     3578     5018
    14021        9        9        9       13     3578     3572     3579     3579    11178    11179     3579    11219
    14022        9        9        9       13     2674     3570     3580     3580     5106    11161     3580     5107
    14023        9        9        9       13     3580     3570     3581     3581    11161    11162     3581    11234
    14024        9        9        9       13     3570     2685     3582     3582     5167     5168     3582    11163
    14025        9        9        9       13     3570     3582     3583     3583    11163    11246     3583    11164
    14026        9        9        9       13     2674     3580     2675     2675     5107     5112     2675     5104
    14027        9        9        9       13     2675     3580     3584     3584     5112    11235     3584     5113
    14028        9        9        9       13     3584     3580     3585     3585    11235    11236     3585    11259
    14029        9        9        9       13     3582     2685     2684     2684     5168     5162     2684     5163
! ... 105 like lines cut
esel,s,type,,9
keyop,9,2,1                ! Apply load in local coordinate system
keyop,9,7,1                ! Use original area so load is constant in large deformation
esel,all
/com,*********** Create Bearing Load ***********
et,10,154
eblock,10,,,206
(15i9)
    14134       10       10       10        0     3011     3000     3480     3480     7371     7372     3480     7447
    14135       10       10       10        0     3093     3104     3479     3479     8005     8080     3479     8006
    14136       10       10       10        0     3479     3104     3481     3481     8080     8081     3481    10514
    14137       10       10       10        0     3479     3481     3482     3482    10514    10532     3482    10515
    14138       10       10       10        0     3093     3479     3483     3483     8006    10516     3483     8007
    14139       10       10       10        0     3483     3479     3484     3484    10516    10517     3484    10548
    14140       10       10       10        0     3093     3483     3094     3094     8007     8012     3094     8004
    14141       10       10       10        0     3094     3483     3485     3485     8012    10549     3485     8013
    14142       10       10       10        0     3485     3483     3486     3486    10549    10550     3486    10565
    14143       10       10       10        0     3094     3485     3095     3095     8013     8019     3095     8011
    14144       10       10       10        0     3481     3104     3103     3103     8081     8073     3103     8074
    14145       10       10       10        0     3481     3103     3487     3487     8074     8075     3487    10533
    14146       10       10       10        0     3481     3487     3488     3488    10533    10578     3488    10534
    14147       10       10       10        0     3487     3103     3102     3102     8075     8067     3102     8068
    14148       10       10       10        0     3011     3480     3489     3489     7447    10524     3489     7448
    14149       10       10       10        0     3489     3480     3490     3490    10524    10525     3490    10596
    14150       10       10       10        0     3011     3489     3010     3010     7448     7441     3010     7440
    14151       10       10       10        0     3010     3489     3491     3491     7441    10597     3491     7442
    14152       10       10       10        0     3491     3489     3492     3492    10597    10598     3492    10613
    14153       10       10       10        0     3010     3491     3009     3009     7442     7433     3009     7432
! ... 187 like lines cut
esel,s,type,,10
keyop,10,7,1                ! Use original area so load is constant in large deformation
esel,all
/com,*********** Create Bearing Load ***********
et,11,154
eblock,10,,,204
(15i9)
    14340       11       11       11        0     2662     2673     3390     3390     5026     5098     3390     5027
    14341       11       11       11        0     2883     2872     3389     3389     6493     6494     3389     6570
    14342       11       11       11        0     3393     3389     3394     3394     9864     9865     3394     9896
    14343       11       11       11        0     2883     3389     3393     3393     6570     9864     3393     6571
    14344       11       11       11        0     3389     3391     3392     3392     9862     9880     3392     9863
    14345       11       11       11        0     3389     2872     3391     3391     6494     6495     3391     9862
    14346       11       11       11        0     3391     2872     2873     2873     6495     6492     2873     6501
    14347       11       11       11        0     3391     2873     3395     3395     6501     6502     3395     9881
    14348       11       11       11        0     3391     3395     3396     3396     9881     9913     3396     9882
    14349       11       11       11        0     2883     3393     2882     2882     6571     6566     2882     6565
    14350       11       11       11        0     2882     3393     3397     3397     6566     9897     3397     6567
    14351       11       11       11        0     3397     3393     3398     3398     9897     9898     3398     9928
    14352       11       11       11        0     3395     2873     2874     2874     6502     6500     2874     6507
    14353       11       11       11        0     2882     3397     2881     2881     6567     6559     2881     6558
    14354       11       11       11        0     3390     2673     3399     3399     5098     5099     3399     9873
    14355       11       11       11        0     3390     3399     3400     3400     9873     9945     3400     9874
    14356       11       11       11        0     3399     2673     2672     2672     5099     5092     2672     5093
    14357       11       11       11        0     3399     2672     3401     3401     5093     5094     3401     9946
    14358       11       11       11        0     3399     3401     3402     3402     9946     9962     3402     9947
    14359       11       11       11        0     3401     2672     2671     2671     5094     5085     2671     5086
! ... 185 like lines cut
esel,s,type,,11
keyop,11,7,1                ! Use original area so load is constant in large deformation
esel,all
/com,*********** Create Bearing Load ***********
et,12,154
eblock,10,,,124
(15i9)
    14544       12       12       12        0     2988     2999     3621     3621     7305     7367     3621     7306
    14545       12       12       12        0     3023     3012     3620     3620     7454     7455     3620     7515
    14546       12       12       12        0     3621     2999     3622     3622     7367     7368     3622    11494
    14547       12       12       12        0     3621     3622     3623     3623    11494    11502     3623    11495
    14548       12       12       12        0     2988     3621     3624     3624     7306    11496     3624     7307
    14549       12       12       12        0     3624     3621     3625     3625    11496    11497     3625    11516
    14550       12       12       12        0     2988     3624     2989     2989     7307     7312     2989     7304
    14551       12       12       12        0     2989     3624     3626     3626     7312    11517     3626     7313
    14552       12       12       12        0     3626     3624     3627     3627    11517    11518     3627    11530
    14553       12       12       12        0     3622     2999     2998     2998     7368     7361     2998     7362
    14554       12       12       12        0     3622     2998     3628     3628     7362     7363     3628    11503
    14555       12       12       12        0     3622     3628     3629     3629    11503    11546     3629    11504
    14556       12       12       12        0     3620     3012     3630     3630     7455     7456     3630    11487
    14557       12       12       12        0     3620     3630     3631     3631    11487    11560     3631    11488
    14558       12       12       12        0     3023     3620     3632     3632     7515    11489     3632     7516
    14559       12       12       12        0     3632     3620     3633     3633    11489    11490     3633    11574
    14560       12       12       12        0     3630     3012     3013     3013     7456     7453     3013     7460
    14561       12       12       12        0     3630     3013     3634     3634     7460     7461     3634    11561
    14562       12       12       12        0     3630     3634     3635     3635    11561    11588     3635    11562
    14563       12       12       12        0     3023     3632     3022     3022     7516     7511     3022     7510
! ... 105 like lines cut
esel,s,type,,12
keyop,12,7,1                ! Use original area so load is constant in large deformation
esel,all
/com,*********** Create Bearing Load ***********
et,13,154
eblock,10,,,124
(15i9)
    14668       13       13       13        0     2674     2685     3570     3570     5105     5167     3570     5106
    14669       13       13       13        0     2661     2650     3571     3571     4957     4958     3571     5022
    14670       13       13       13        0     2661     3571     3572     3572     5022    11170     3572     5023
    14671       13       13       13        0     3572     3571     3573     3573    11170    11171     3573    11177
    14672       13       13       13        0     3571     2650     3574     3574     4958     4959     3574    11172
    14673       13       13       13        0     3571     3574     3575     3575    11172    11190     3575    11173
    14674       13       13       13        0     3574     2650     2651     2651     4959     4956     2651     4964
    14675       13       13       13        0     3574     2651     3576     3576     4964     4965     3576    11191
    14676       13       13       13        0     3574     3576     3577     3577    11191    11205     3577    11192
    14677       13       13       13        0     2661     3572     2660     2660     5023     5017     2660     5016
    14678       13       13       13        0     2660     3572     3578     3578     5017    11178     3578     5018
    14679       13       13       13        0     3578     3572     3579     3579    11178    11179     3579    11219
    14680       13       13       13        0     2674     3570     3580     3580     5106    11161     3580     5107
    14681       13       13       13        0     3580     3570     3581     3581    11161    11162     3581    11234
    14682       13       13       13        0     3570     2685     3582     3582     5167     5168     3582    11163
    14683       13       13       13        0     3570     3582     3583     3583    11163    11246     3583    11164
    14684       13       13       13        0     2674     3580     2675     2675     5107     5112     2675     5104
    14685       13       13       13        0     2675     3580     3584     3584     5112    11235     3584     5113
    14686       13       13       13        0     3584     3580     3585     3585    11235    11236     3585    11259
    14687       13       13       13        0     3582     2685     2684     2684     5168     5162     2684     5163
! ... 105 like lines cut
esel,s,type,,13
keyop,13,7,1                ! Use original area so load is constant in large deformation
esel,all
/gst,on,on
fini
*get,_numnode,node,0,count
*get,_numelem,elem,0,count
*get, _MAXELEMNUM, elem, 0, NUM, MAX
*get, _MAXNODENUM, node, 0, NUM, MAX
*get, _MAXELEMTYPE, etyp, 0, NUM, MAX
*get, _MAXREALCONST, real, 0, NUM, MAX
/go
/wb,load,end               !  done creating loads
/com,--- Number of total nodes = %_numnode%
/com,--- Number of contact elements = 2579
/com,--- Number of spring elements = 0
/com,--- Number of bearing elements = 0
/com,--- Number of solid elements = 8586
/com,--- Number of condensed parts = 0
/com,--- Number of total elements = %_numelem%
*get,_wallbsol,active,,time,wall
/com,****************************************************************************
/com,*************************    SOLUTION       ********************************
/com,****************************************************************************
/solu
antype,0                   ! static analysis
nlgeom,on                  ! Turn on Large Deformation Effects
_thickRatio=0.333   ! Ratio of thick parts in the model
eqsl,sparse,,,,,1
cntr,print,1               ! print out contact info and also make no initial contact an error
nldiag,cont,iter           ! print out contact info each equilibrium iteration
rescontrol,define,last           ! Turn on restart files due to future eigen analysis intent
/com,****************************************************
/com,******************* SOLVE FOR LS 1 OF 1 ****************
esel,s,type,,8
nsle
sfe,all,1,pres,1,0.
sfe,all,2,pres,1,0.
sfe,all,3,pres,1,1.81895257742279
esel,s,type,,9
nsle
sfe,all,1,pres,1,0.
sfe,all,2,pres,1,0.
sfe,all,3,pres,1,-1.21263913117792
nsel,all
esel,all
esel,s,type,,10
sfe,all,5,pres,0,0.0,1.,0.,0.
local,11,0,0,0,0,61.927513064147,0.,0.
csys,0
*set,_v1,0.470588235294118
*set,_v2,0.882352941176471
*set,_v3,0.
*get,_necurr,elem,,count
_ecurr=0
_total=0
*do,_i,1,_necurr
  _ecurr = ELNEXT(_ecurr)
  _normx = NORMNX(NELEM(_ecurr,1),NELEM(_ecurr,2),NELEM(_ecurr,3))
  _normy = NORMNY(NELEM(_ecurr,1),NELEM(_ecurr,2),NELEM(_ecurr,3))
  _normz = NORMNZ(NELEM(_ecurr,1),NELEM(_ecurr,2),NELEM(_ecurr,3))
  _normmag = sqrt(_normx*_normx + _normy*_normy + _normz*_normz )
  _normx = _normx/_normmag
  _normy = _normy/_normmag
  _normz = _normz/_normmag
  _dot = _normx*_v1+_normy*_v2+_normz*_v3
  *if,_dot,gt,-.00001,then
    esel,u,elem,,_ecurr
  *else
    csys,11
    *get,_indd,elem,_ecurr,aproj,x
    csys,0
    _total=_total+_indd
  *endif
*enddo
*get,_necurr,elem,,count
*if,_necurr,eq,0,then
  *msg,error
  NO ELEMENTS ARE SELECTED TO APPLY BEARING LOAD TO. & 
  IT IS LIKELY THAT THE BEARING LOAD IS IN THE WRONG DIRECTION
*endif
*set,_mag,34000.
_mag=_mag/_total     
sfe,all,5,pres,0,_mag,16000.,30000.,0.
nsel,all
esel,all
esel,s,type,,11
sfe,all,5,pres,0,0.0,1.,0.,0.
local,11,0,0,0,0,78.6900675259798,0.,0.
csys,0
*set,_v1,0.196116135138184
*set,_v2,0.98058067569092
*set,_v3,0.
*get,_necurr,elem,,count
_ecurr=0
_total=0
*do,_i,1,_necurr
  _ecurr = ELNEXT(_ecurr)
  _normx = NORMNX(NELEM(_ecurr,1),NELEM(_ecurr,2),NELEM(_ecurr,3))
  _normy = NORMNY(NELEM(_ecurr,1),NELEM(_ecurr,2),NELEM(_ecurr,3))
  _normz = NORMNZ(NELEM(_ecurr,1),NELEM(_ecurr,2),NELEM(_ecurr,3))
  _normmag = sqrt(_normx*_normx + _normy*_normy + _normz*_normz )
  _normx = _normx/_normmag
  _normy = _normy/_normmag
  _normz = _normz/_normmag
  _dot = _normx*_v1+_normy*_v2+_normz*_v3
  *if,_dot,gt,-.00001,then
    esel,u,elem,,_ecurr
  *else
    csys,11
    *get,_indd,elem,_ecurr,aproj,x
    csys,0
    _total=_total+_indd
  *endif
*enddo
*get,_necurr,elem,,count
*if,_necurr,eq,0,then
  *msg,error
  NO ELEMENTS ARE SELECTED TO APPLY BEARING LOAD TO. & 
  IT IS LIKELY THAT THE BEARING LOAD IS IN THE WRONG DIRECTION
*endif
*set,_mag,30594.1170815567
_mag=_mag/_total     
sfe,all,5,pres,0,_mag,6000.,30000.,0.
nsel,all
esel,all
esel,s,type,,12
sfe,all,5,pres,0,0.0,1.,0.,0.
local,11,0,0,0,0,-84.2894068625004,0.,0.
csys,0
*set,_v1,9.95037190209989e-002
*set,_v2,-0.995037190209989
*set,_v3,0.
*get,_necurr,elem,,count
_ecurr=0
_total=0
*do,_i,1,_necurr
  _ecurr = ELNEXT(_ecurr)
  _normx = NORMNX(NELEM(_ecurr,1),NELEM(_ecurr,2),NELEM(_ecurr,3))
  _normy = NORMNY(NELEM(_ecurr,1),NELEM(_ecurr,2),NELEM(_ecurr,3))
  _normz = NORMNZ(NELEM(_ecurr,1),NELEM(_ecurr,2),NELEM(_ecurr,3))
  _normmag = sqrt(_normx*_normx + _normy*_normy + _normz*_normz )
  _normx = _normx/_normmag
  _normy = _normy/_normmag
  _normz = _normz/_normmag
  _dot = _normx*_v1+_normy*_v2+_normz*_v3
  *if,_dot,gt,-.00001,then
    esel,u,elem,,_ecurr
  *else
    csys,11
    *get,_indd,elem,_ecurr,aproj,x
    csys,0
    _total=_total+_indd
  *endif
*enddo
*get,_necurr,elem,,count
*if,_necurr,eq,0,then
  *msg,error
  NO ELEMENTS ARE SELECTED TO APPLY BEARING LOAD TO. & 
  IT IS LIKELY THAT THE BEARING LOAD IS IN THE WRONG DIRECTION
*endif
*set,_mag,30149.6268633627
_mag=_mag/_total     
sfe,all,5,pres,0,_mag,3000.,-30000.,0.
nsel,all
esel,all
esel,s,type,,13
sfe,all,5,pres,0,0.0,1.,0.,0.
local,11,0,0,0,0,-129.805571092265,0.,0.
csys,0
*set,_v1,-0.64018439966448
*set,_v2,-0.768221279597376
*set,_v3,0.
*get,_necurr,elem,,count
_ecurr=0
_total=0
*do,_i,1,_necurr
  _ecurr = ELNEXT(_ecurr)
  _normx = NORMNX(NELEM(_ecurr,1),NELEM(_ecurr,2),NELEM(_ecurr,3))
  _normy = NORMNY(NELEM(_ecurr,1),NELEM(_ecurr,2),NELEM(_ecurr,3))
  _normz = NORMNZ(NELEM(_ecurr,1),NELEM(_ecurr,2),NELEM(_ecurr,3))
  _normmag = sqrt(_normx*_normx + _normy*_normy + _normz*_normz )
  _normx = _normx/_normmag
  _normy = _normy/_normmag
  _normz = _normz/_normmag
  _dot = _normx*_v1+_normy*_v2+_normz*_v3
  *if,_dot,gt,-.00001,then
    esel,u,elem,,_ecurr
  *else
    csys,11
    *get,_indd,elem,_ecurr,aproj,x
    csys,0
    _total=_total+_indd
  *endif
*enddo
*get,_necurr,elem,,count
*if,_necurr,eq,0,then
  *msg,error
  NO ELEMENTS ARE SELECTED TO APPLY BEARING LOAD TO. & 
  IT IS LIKELY THAT THE BEARING LOAD IS IN THE WRONG DIRECTION
*endif
*set,_mag,39051.2483795333
_mag=_mag/_total     
sfe,all,5,pres,0,_mag,-25000.,-30000.,0.
nsel,all
esel,all
/nopr
/gopr
/nolist
autots,on                  ! Workbench Program Controlled automatic time stepping
nsub,1,10,1                ! due to presence of general nonlinear
time,1.
outres,erase
outres,all,none
outres,nsol,all,
outres,rsol,all
outres,eangl,all
outres,etmp,all
outres,veng,all
outres,strs,all,
outres,epel,all,
outres,eppl,all,
outres,cont,all,
! *********** WB SOLVE COMMAND ***********
! check interactive state
*get,ANSINTER_,active,,int
*if,ANSINTER_,ne,0,then
/eof
*endif
solve
/com *************** Write FE CONNECTORS ********* 
CEWRITE,file,ce,,INTE
/com,****************************************************
/com,*************** FINISHED SOLVE FOR LS 1 *************
*get,_wallasol,active,,time,wall
/nopr
*get,_numnode,node,0,count
*get,_numelem,elem,0,count
*get, _MAXELEMNUM, elem, 0, NUM, MAX
*get, _MAXNODENUM, node, 0, NUM, MAX,,,INTERNAL
*get, _MAXELEMTYPE, etyp, 0, NUM, MAX
*get, _MAXREALCONST, real, 0, NUM, MAX
/gopr
/post1
xmlo,ENCODING,ISO-8859-1
xmlo,parm
/xml,parm,xml
fini
/gopr
*get,_walldone,active,,time,wall
_preptime=(_wallbsol-_wallstrt)*3600
_solvtime=(_wallasol-_wallbsol)*3600
_posttime=(_walldone-_wallasol)*3600
_totaltim=(_walldone-_wallstrt)*3600
*get,_dlbratio,active,0,solu,dlbr
*get,_combtime,active,0,solu,comb
/com,--- Total number of nodes = %_numnode%
/com,--- Total number of elements = %_numelem%
/com,--- Element load balance ratio = %_dlbratio%
/com,--- Time to combine distributed files = %_combtime%
/wb,file,end               ! done with WB generated input
