/batch
/config,noeldb,1     ! force off writing results to database
*get,_wallstrt,active,,time,wall
! ANSYS input file written by Workbench version 2021 R1
! File used for geometry attach: C:\Users\ASUS\Documents\ANSYS\ANSYS2021\Sec12-4\Disk_files\dp0\SYS\DM\SYS.agdb
/title,Disk--Transient (A5)
! ****** Begin Custom Load Command Snippet ******
/COM, ACT Extensions:
/COM,     LSDYNA, 2021.1
/COM,     5f463412-bd3e-484b-87e7-cbc0a665e474, wbex
/COM,
! ****** End   Custom Load Command Snippet ******
*DIM,_wb_ProjectScratch_dir,string,248
_wb_ProjectScratch_dir(1) = 'C:\Users\ASUS\Documents\ANSYS\ANSYS2021\Sec12-4\_ProjectScratch\Scr2F55\'
*DIM,_wb_SolverFiles_dir,string,248
_wb_SolverFiles_dir(1) = 'C:\Users\ASUS\Documents\ANSYS\ANSYS2021\Sec12-4\Disk_files\dp0\SYS\MECH\'
*DIM,_wb_userfiles_dir,string,248
_wb_userfiles_dir(1) = 'C:\Users\ASUS\Documents\ANSYS\ANSYS2021\Sec12-4\Disk_files\user_files\'
/com,--- Data in consistent NMM units. See Solving Units in the help system for more information.
/units,MPA
/nopr
/wb,file,start              !  signify a WB generated input file
/prep7
! Turn off shape checking because checks already performed inside WB mesher.
! See help system for more information.
SHPP,OFF,,NOWARN
/nolist
etcon,set             ! allow ANSYS to choose best KEYOP's for 180x elements, resets any applicable keyopt to MAPDL defaults
/com,*********** Nodes for the whole assembly ***********
nblock,3,,4227
(1i9,3e20.9e3)
        1    -0.000000000E+00     2.000000000E+02     0.000000000E+00
        2     0.000000000E+00     0.000000000E+00     0.000000000E+00
        3    -1.661236549E-14     1.915275341E+02     0.000000000E+00
        4    -1.587749621E-14     1.830550682E+02     0.000000000E+00
        5    -1.514262694E-14     1.745826023E+02     0.000000000E+00
        6    -1.440775766E-14     1.661101364E+02     0.000000000E+00
        7    -1.367288839E-14     1.576376705E+02     0.000000000E+00
        8    -1.293801911E-14     1.491652046E+02     0.000000000E+00
        9    -1.220314984E-14     1.406927387E+02     0.000000000E+00
       10    -1.146828057E-14     1.322202729E+02     0.000000000E+00
       11    -1.073342421E-14     1.237479559E+02     0.000000000E+00
       12    -9.998757395E-15     1.152778242E+02     0.000000000E+00
       13    -9.289835869E-15     1.071045155E+02     0.000000000E+00
       14    -8.661788961E-15     9.986362762E+01     0.000000000E+00
       15    -8.102969859E-15     9.342088201E+01     0.000000000E+00
       16    -7.601202354E-15     8.763589654E+01     0.000000000E+00
       17    -7.146724058E-15     8.239611854E+01     0.000000000E+00
       18    -6.723201555E-15     7.751323652E+01     0.000000000E+00
       19    -6.303016885E-15     7.266883710E+01     0.000000000E+00
       20    -5.882939364E-15     6.782567303E+01     0.000000000E+00
! ... 3824 like lines cut
/wb,elem,start            !  set before creation of elements
/com,*********** Elements for Body 1 "Block" ***********
et,1,183
keyo,1,3,3
eblock,19,solid,,551
(19i9)
        1        1        1        1        0        0        0        0        8        0        1      398      601      580      580     1577     1781      580     1576
        1        1        1        1        0        0        0        0        8        0        2      345      271      346      346     1254     1255      346     1444
        1        1        1        1        0        0        0        0        8        0        3      413      327      543      543     1399     1401      543     1602
        1        1        1        1        0        0        0        0        8        0        4      236      167      603      603      976      979      603     1175
        1        1        1        1        0        0        0        0        8        0        5      170      570      185      185      987     1035      185      985
        1        1        1        1        0        0        0        0        8        0        6      228      229      614      614     1150     1156      614     1153
        1        1        1        1        0        0        0        0        8        0        7      219      164      569      569      968      969      569     1129
        1        1        1        1        0        0        0        0        8        0        8      548      163      172      172      963      962      172      995
        1        1        1        1        0        0        0        0        8        0        9      178      179      177      177     1015     1013      177     1012
        1        1        1        1        0        0        0        0        8        0       10      197      176      198      198     1009     1010      198     1069
        1        1        1        1        0        0        0        0        8        0       11      568      240      183      183     1185     1025      183     1027
        1        1        1        1        0        0        0        0        8        0       12      157      246      180      180      944     1020      180      943
        1        1        1        1        0        0        0        0        8        0       13      159      169      183      183      950      983      183      951
        1        1        1        1        0        0        0        0        8        0       14      560      158      184      184      948      947      184     1031
        1        1        1        1        0        0        0        0        8        0       15      183      169      184      248      983      984     1029     1026
        1        1        1        1        0        0        0        0        8        0       16      595      183      248      318     1028     1026     1205     1380
        1        1        1        1        0        0        0        0        8        0       17      595      261      568      183     1233     1232     1027     1028
        1        1        1        1        0        0        0        0        8        0       18      334      316      547      335     1370     1371     1423     1419
        1        1        1        1        0        0        0        0        8        0       19      315      261      335      547     1230     1231     1423     1368
        1        1        1        1        0        0        0        0        8        0       20      334      397      580      316     1420     1573     1373     1370
! ... 532 like lines cut
!Material Id = {0CD3D594-2412-481E-9A7D-F0A4B6EB3D76}
/com,*********** Elements for Body 2 "Disk" ***********
et,2,183
keyo,2,3,3
eblock,19,solid,,654
(19i9)
        2        2        2        2        0        0        0        0        8        0      552     1853     1854     2350     2350     2626     2629     2350     2627
        2        2        2        2        0        0        0        0        8        0      553     2248     2169     2249     2249     3402     3403     2249     3594
        2        2        2        2        0        0        0        0        8        0      554     2479     2167     2246     2246     3396     3394     2246     3590
        2        2        2        2        0        0        0        0        8        0      555     2244     2166     2245     2245     3392     3393     2245     3584
        2        2        2        2        0        0        0        0        8        0      556     2239     2164     2237     2237     3386     3385     2237     3566
        2        2        2        2        0        0        0        0        8        0      557     2188     2406     2101     2101     3448     3237     2101     3235
        2        2        2        2        0        0        0        0        8        0      558     2160     2088     2157     2157     3202     3201     2157     3370
        2        2        2        2        0        0        0        0        8        0      559     2127     2060     2124     2124     3133     3132     2124     3295
        2        2        2        2        0        0        0        0        8        0      560     2125     2472     2123     2123     3298     3293     2123     3290
        2        2        2        2        0        0        0        0        8        0      561     2102     2403     2041     2041     3240     3085     2041     3084
        2        2        2        2        0        0        0        0        8        0      562     2096     2034     2393     2393     3071     3072     2393     3224
        2        2        2        2        0        0        0        0        8        0      563     2084     2027     2082     2082     3052     3051     2082     3185
        2        2        2        2        0        0        0        0        8        0      564     2390     2021     2071     2071     3038     3037     2071     3161
        2        2        2        2        0        0        0        0        8        0      565     2070     2019     2068     2068     3033     3032     2068     3152
        2        2        2        2        0        0        0        0        8        0      566     2059     2012     2057     2057     3011     3010     2057     3127
        2        2        2        2        0        0        0        0        8        0      567     2045     2033     2095     2095     3069     3070     2095     3094
        2        2        2        2        0        0        0        0        8        0      568     2435     2468     2066     2066     3834     3150     2066     3149
        2        2        2        2        0        0        0        0        8        0      569     2429     1986     2470     2470     2948     2949     2470     3830
        2        2        2        2        0        0        0        0        8        0      570     1971     1942     2002     2002     2838     2839     2002     2912
        2        2        2        2        0        0        0        0        8        0      571     1947     2422     1995     1995     2852     2969     1995     2851
! ... 635 like lines cut
!Material Id = {E7AF6E2E-F5C5-4F0D-BB00-55E40575BD43}
/wb,elem,end               !  done creating elements
/com,*********** Send User Defined Coordinate System(s) ***********
csys,0
toffst,273.15,  ! Temperature offset from absolute zero
/com,*********** Set Reference Temperature ***********
tref,22.
/wb,mat,start              !  starting to send materials
/com,*********** Send Materials ***********
MP,DENS,1,1e-09,	! tonne mm^-3
MP,EX,1,0.01,	! tonne s^-2 mm^-1
MP,NUXY,1,0.4,

MP,DENS,2,1e-09,	! tonne mm^-3
MP,EX,2,0.01,	! tonne s^-2 mm^-1
MP,NUXY,2,0.4,

/wb,mat,end                !  done sending materials
/com,*********** Send Sheet Properties ***********
r,1,10.

r,2,10.

!************************* Model Summary ********************
!Block,	Polymer,	matid,	1
!Disk,	Polymer,	matid,	2
!************************* End Model Summary ********************
! get the diagonal of the bounding box. Needed later for other things
*get,_xmin,node,,mnloc,x
*get,_ymin,node,,mnloc,y
*get,_zmin,node,,mnloc,z
*get,_xmax,node,,mxloc,x
*get,_ymax,node,,mxloc,y
*get,_zmax,node,,mxloc,z
_ASMDIAG=(_xmax-_xmin)*(_xmax-_xmin)+(_ymax-_ymin)*(_ymax-_ymin)+(_zmax-_zmin)*(_zmax-_zmin)
_ASMDIAG=SQRT(_ASMDIAG)
/wb,contact,start          !  starting to send contact
/com,*********** Create Contact "Frictionless - Block To Disk" ***********
/com,            Real Constant Set For Above Contact Is 4 & 3 
*set,tid,4
*set,cid,3
r,tid
r,cid
et,tid,169
et,cid,172
eblock,10,,,80
(15i9)
     1206        4        4        4        0       82       43      701
     1207        4        4        4        0       81       82      778
     1208        4        4        4        0       80       81      776
     1209        4        4        4        0       79       80      774
     1210        4        4        4        0       78       79      772
     1211        4        4        4        0       77       78      770
     1212        4        4        4        0       76       77      768
     1213        4        4        4        0       75       76      766
     1214        4        4        4        0       74       75      764
     1215        4        4        4        0       73       74      762
     1216        4        4        4        0       72       73      760
     1217        4        4        4        0       71       72      758
     1218        4        4        4        0       70       71      756
     1219        4        4        4        0       69       70      754
     1220        4        4        4        0       68       69      752
     1221        4        4        4        0       67       68      750
     1222        4        4        4        0       66       67      748
     1223        4        4        4        0       65       66      746
     1224        4        4        4        0       64       65      744
     1225        4        4        4        0       63       64      742
! ... 61 like lines cut
eblock,10,,,80
(15i9)
     1286        3        3        3        0       82       43      701
     1287        3        3        3        0       81       82      778
     1288        3        3        3        0       80       81      776
     1289        3        3        3        0       79       80      774
     1290        3        3        3        0       78       79      772
     1291        3        3        3        0       77       78      770
     1292        3        3        3        0       76       77      768
     1293        3        3        3        0       75       76      766
     1294        3        3        3        0       74       75      764
     1295        3        3        3        0       73       74      762
     1296        3        3        3        0       72       73      760
     1297        3        3        3        0       71       72      758
     1298        3        3        3        0       70       71      756
     1299        3        3        3        0       69       70      754
     1300        3        3        3        0       68       69      752
     1301        3        3        3        0       67       68      750
     1302        3        3        3        0       66       67      748
     1303        3        3        3        0       65       66      746
     1304        3        3        3        0       64       65      744
     1305        3        3        3        0       63       64      742
! ... 61 like lines cut
eblock,10,,,84
(15i9)
     1366        3        4        3        0     1785     1787     2488
     1367        3        4        3        0     1787     1788     2494
     1368        3        4        3        0     1788     1789     2496
     1369        3        4        3        0     1789     1790     2498
     1370        3        4        3        0     1790     1791     2500
     1371        3        4        3        0     1791     1792     2502
     1372        3        4        3        0     1792     1793     2504
     1373        3        4        3        0     1793     1794     2506
     1374        3        4        3        0     1794     1795     2508
     1375        3        4        3        0     1795     1796     2510
     1376        3        4        3        0     1796     1797     2512
     1377        3        4        3        0     1797     1798     2514
     1378        3        4        3        0     1798     1799     2516
     1379        3        4        3        0     1799     1800     2518
     1380        3        4        3        0     1800     1801     2520
     1381        3        4        3        0     1801     1802     2522
     1382        3        4        3        0     1802     1803     2524
     1383        3        4        3        0     1803     1804     2526
     1384        3        4        3        0     1804     1805     2528
     1385        3        4        3        0     1805     1806     2530
! ... 65 like lines cut
eblock,10,,,84
(15i9)
     1450        4        3        4        0     1785     1787     2488
     1451        4        3        4        0     1787     1788     2494
     1452        4        3        4        0     1788     1789     2496
     1453        4        3        4        0     1789     1790     2498
     1454        4        3        4        0     1790     1791     2500
     1455        4        3        4        0     1791     1792     2502
     1456        4        3        4        0     1792     1793     2504
     1457        4        3        4        0     1793     1794     2506
     1458        4        3        4        0     1794     1795     2508
     1459        4        3        4        0     1795     1796     2510
     1460        4        3        4        0     1796     1797     2512
     1461        4        3        4        0     1797     1798     2514
     1462        4        3        4        0     1798     1799     2516
     1463        4        3        4        0     1799     1800     2518
     1464        4        3        4        0     1800     1801     2520
     1465        4        3        4        0     1801     1802     2522
     1466        4        3        4        0     1802     1803     2524
     1467        4        3        4        0     1803     1804     2526
     1468        4        3        4        0     1804     1805     2528
     1469        4        3        4        0     1805     1806     2530
! ... 65 like lines cut
keyo,cid,8,2               ! auto create asymmetric contact (from Program Controlled setting)
keyo,cid,10,0              ! adjust contact stiffness each NR iteration
keyo,cid,12,0              ! standard contact
keyo,cid,2,0               ! augmented Lagrange (from Program Controlled setting)
keyo,cid,4,0               ! on Gauss point (from Program Controlled setting)
keyo,cid,9,0               ! use real geometry with stepped effects
keyo,cid,7,0               ! No Prediction
rmod,tid,3,1.       ! FKN
rmod,tid,5,0.       ! ICONT
rmod,tid,6,-0.55901700270495  ! PINB
rmod,tid,10,0.      ! CNOF
rmod,tid,12,0.      ! FKT
rmod,tid,36,28      ! WB DSID
rmod,cid,3,1.       ! FKN
rmod,cid,5,0.       ! ICONT
rmod,cid,6,-0.55901700270495  ! PINB
rmod,cid,10,0.      ! CNOF
rmod,cid,12,0.      ! FKT
rmod,cid,36,28      ! WB DSID
nsel,all
esel,all
/wb,contact,end            !  done creating contacts
/golist
/wb,load,start             !  starting to send loads
CMBLOCK,_ICNAME ,NODE,     2059
(8i10)
      1785      1786      1787      1788      1789      1790      1791      1792
      1793      1794      1795      1796      1797      1798      1799      1800
      1801      1802      1803      1804      1805      1806      1807      1808
      1809      1810      1811      1812      1813      1814      1815      1816
      1817      1818      1819      1820      1821      1822      1823      1824
      1825      1826      1827      1828      1829      1830      1831      1832
      1833      1834      1835      1836      1837      1838      1839      1840
      1841      1842      1843      1844      1845      1846      1847      1848
      1849      1850      1851      1852      1853      1854      1855      1856
      1857      1858      1859      1860      1861      1862      1863      1864
      1865      1866      1867      1868      1869      1870      1871      1872
      1873      1874      1875      1876      1877      1878      1879      1880
      1881      1882      1883      1884      1885      1886      1887      1888
      1889      1890      1891      1892      1893      1894      1895      1896
      1897      1898      1899      1900      1901      1902      1903      1904
      1905      1906      1907      1908      1909      1910      1911      1912
      1913      1914      1915      1916      1917      1918      1919      1920
      1921      1922      1923      1924      1925      1926      1927      1928
      1929      1930      1931      1932      1933      1934      1935      1936
      1937      1938      1939      1940      1941      1942      1943      1944
! ... 238 like lines cut
cmsel,s,_ICNAME
/com,***************** Define Initial Velocity ***************
ic,all,UX,,-500.
ic,all,UY,,0.
nsel,all
/gst,on,on
fini
*get,_numnode,node,0,count
*get,_numelem,elem,0,count
*get, _MAXELEMNUM, elem, 0, NUM, MAX
*get, _MAXNODENUM, node, 0, NUM, MAX
*get, _MAXELEMTYPE, etyp, 0, NUM, MAX
*get, _MAXREALCONST, real, 0, NUM, MAX
/go
/wb,load,end               !  done creating loads
/com,--- Number of total nodes = %_numnode%
/com,--- Number of contact elements = 328
/com,--- Number of spring elements = 0
/com,--- Number of bearing elements = 0
/com,--- Number of solid elements = 1205
/com,--- Number of condensed parts = 0
/com,--- Number of total elements = %_numelem%
*get,_wallbsol,active,,time,wall
/com,****************************************************************************
/com,*************************    SOLUTION       ********************************
/com,****************************************************************************
/solu
antype,4                   ! transient analysis
nlgeom,on                  ! Turn on Large Deformation Effects
kbc,1                      ! stepped BC's
_thickRatio=  0     ! Ratio of thick parts in the model
eqsl,sparse,,,,,1
cntr,print,1               ! print out contact info and also make no initial contact an error
dmpoption,emat,no             ! Don't combine emat file for DANSYS
dmpoption,esav,no             ! Don't combine esav file for DANSYS
trnopt,full,,,,,hht        ! HHT time integration method
tintp, mosp			! Choose transient integration settings for moderate speed application
nldiag,cont,iter           ! print out contact info each equilibrium iteration
rescontrol,define,last,last,,dele	   ! Program Controlled
/com,****************************************************
/com,******************* SOLVE FOR LS 1 OF 1 ****************
/nopr
/gopr
/nolist
autots,on                   ! User turned on automatic time stepping
deltim,0.0001,1e-05,0.001,OFF
time,0.2
timint,on                  ! Turn on time integration effects
outres,erase
outres,all,none
outres,nsol,-100,
outres,rsol,-100
outres,eangl,-100
outres,etmp,-100
outres,veng,-100
outres,cont,-100,
outres,v,-100,
outres,a,-100,
! *********** WB SOLVE COMMAND ***********
! check interactive state
*get,ANSINTER_,active,,int
*if,ANSINTER_,ne,0,then
/eof
*endif
solve
/com *************** Write FE CONNECTORS ********* 
CEWRITE,file,ce,,INTE
/com,****************************************************
/com,*************** FINISHED SOLVE FOR LS 1 *************
*get,_wallasol,active,,time,wall
/nopr
*get,_numnode,node,0,count
*get,_numelem,elem,0,count
*get, _MAXELEMNUM, elem, 0, NUM, MAX
*get, _MAXNODENUM, node, 0, NUM, MAX,,,INTERNAL
*get, _MAXELEMTYPE, etyp, 0, NUM, MAX
*get, _MAXREALCONST, real, 0, NUM, MAX
/gopr
/post1
xmlo,ENCODING,ISO-8859-1
xmlo,parm
/xml,parm,xml
fini
/gopr
*get,_walldone,active,,time,wall
_preptime=(_wallbsol-_wallstrt)*3600
_solvtime=(_wallasol-_wallbsol)*3600
_posttime=(_walldone-_wallasol)*3600
_totaltim=(_walldone-_wallstrt)*3600
*get,_dlbratio,active,0,solu,dlbr
*get,_combtime,active,0,solu,comb
/com,--- Total number of nodes = %_numnode%
/com,--- Total number of elements = %_numelem%
/com,--- Element load balance ratio = %_dlbratio%
/com,--- Time to combine distributed files = %_combtime%
/wb,file,end               ! done with WB generated input
