
 ANSYS Mechanical Enterprise Academic Student      


 *------------------------------------------------------------------*
 |                                                                  |
 |   W E L C O M E   T O   T H E   A N S Y S (R)  P R O G R A M     |
 |                                                                  |
 *------------------------------------------------------------------*




 ***************************************************************
 *            ANSYS 2021 R1          LEGAL NOTICES             *
 ***************************************************************
 *                                                             *
 * Copyright 1971-2021 ANSYS, Inc.  All rights reserved.       *
 * Unauthorized use, distribution or duplication is            *
 * prohibited.                                                 *
 *                                                             *
 * Ansys is a registered trademark of ANSYS, Inc. or its       *
 * subsidiaries in the United States or other countries.       *
 * See the ANSYS, Inc. online documentation or the ANSYS, Inc. *
 * documentation CD or online help for the complete Legal      *
 * Notice.                                                     *
 *                                                             *
 ***************************************************************
 *                                                             *
 * THIS ANSYS SOFTWARE PRODUCT AND PROGRAM DOCUMENTATION       *
 * INCLUDE TRADE SECRETS AND CONFIDENTIAL AND PROPRIETARY      *
 * PRODUCTS OF ANSYS, INC., ITS SUBSIDIARIES, OR LICENSORS.    *
 * The software products and documentation are furnished by    *
 * ANSYS, Inc. or its subsidiaries under a software license    *
 * agreement that contains provisions concerning               *
 * non-disclosure, copying, length and nature of use,          *
 * compliance with exporting laws, warranties, disclaimers,    *
 * limitations of liability, and remedies, and other           *
 * provisions.  The software products and documentation may be *
 * used, disclosed, transferred, or copied only in accordance  *
 * with the terms and conditions of that software license      *
 * agreement.                                                  *
 *                                                             *
 * ANSYS, Inc. is a UL registered                              *
 * ISO 9001:2015 company.                                      *
 *                                                             *
 ***************************************************************
 *                                                             *
 * This product is subject to U.S. laws governing export and   *
 * re-export.                                                  *
 *                                                             *
 * For U.S. Government users, except as specifically granted   *
 * by the ANSYS, Inc. software license agreement, the use,     *
 * duplication, or disclosure by the United States Government  *
 * is subject to restrictions stated in the ANSYS, Inc.        *
 * software license agreement and FAR 12.212 (for non-DOD      *
 * licenses).                                                  *
 *                                                             *
 ***************************************************************

 2021 R1 
     
 Point Releases and Patches installed:   
     
 Academic Student 2021 R1
 Aqwa 2021 R1
 EnSight 2021 R1 
 FENSAP-ICE 2021 R1  


          *****  ANSYS COMMAND LINE ARGUMENTS  *****
  BATCH MODE REQUESTED (-b)    = NOLIST
  INPUT FILE COPY MODE (-c)    = COPY
  DISTRIBUTED MEMORY PARALLEL REQUESTED
       2 PARALLEL PROCESSES REQUESTED WITH SINGLE THREAD PER PROCESS
    TOTAL OF     2 CORES REQUESTED
  INPUT FILE NAME              = C:\Users\ASUS\Documents\ANSYS\ANSYS2021\Sec12-4\_ProjectScratch\Scr2F55\dummy.dat
  OUTPUT FILE NAME             = C:\Users\ASUS\Documents\ANSYS\ANSYS2021\Sec12-4\_ProjectScratch\Scr2F55\solve.out
  START-UP FILE MODE           = NOREAD
  STOP FILE MODE               = NOREAD

 RELEASE= 2021 R1              BUILD= 21.1      UP20201109   VERSION=WINDOWS x64 
 CURRENT JOBNAME=file0  17:32:08  MAR 24, 2021 CP=      0.172


 PARAMETER _DS_PROGRESS =     999.0000000    

 /INPUT FILE= ds.dat  LINE=       0



 *** NOTE ***                            CP =       0.219   TIME= 17:32:08
 The /CONFIG,NOELDB command is not valid in a Distributed ANSYS          
 solution.  Command is ignored.                                          

 *GET  _WALLSTRT  FROM  ACTI  ITEM=TIME WALL  VALUE=  17.5355556    

 TITLE= 
 Disk--Transient (A5)                                                          

  ACT Extensions:
      LSDYNA, 2021.1
      5f463412-bd3e-484b-87e7-cbc0a665e474, wbex
  

 SET PARAMETER DIMENSIONS ON  _WB_PROJECTSCRATCH_DIR
  TYPE=STRI  DIMENSIONS=      248        1        1

 PARAMETER _WB_PROJECTSCRATCH_DIR(1) = C:\Users\ASUS\Documents\ANSYS\ANSYS2021\Sec12-4\_ProjectScratch\Scr2F55\

 SET PARAMETER DIMENSIONS ON  _WB_SOLVERFILES_DIR
  TYPE=STRI  DIMENSIONS=      248        1        1

 PARAMETER _WB_SOLVERFILES_DIR(1) = C:\Users\ASUS\Documents\ANSYS\ANSYS2021\Sec12-4\Disk_files\dp0\SYS\MECH\

 SET PARAMETER DIMENSIONS ON  _WB_USERFILES_DIR
  TYPE=STRI  DIMENSIONS=      248        1        1

 PARAMETER _WB_USERFILES_DIR(1) = C:\Users\ASUS\Documents\ANSYS\ANSYS2021\Sec12-4\Disk_files\user_files\
 --- Data in consistent NMM units. See Solving Units in the help system for more

 MPA UNITS SPECIFIED FOR INTERNAL    
  LENGTH      = MILLIMETERS (mm)
  MASS        = TONNE (Mg)
  TIME        = SECONDS (sec)
  TEMPERATURE = CELSIUS (C)
  TOFFSET     = 273.0
  FORCE       = NEWTON (N)
  HEAT        = MILLIJOULES (mJ)

 INPUT  UNITS ARE ALSO SET TO MPA 

 *** ANSYS - ENGINEERING ANALYSIS SYSTEM  RELEASE 2021 R1          21.1     ***
 DISTRIBUTED ANSYS Mechanical Enterprise Academic Student      

 00000000  VERSION=WINDOWS x64   17:32:08  MAR 24, 2021 CP=      0.234

 Disk--Transient (A5)                                                          



          ***** ANSYS ANALYSIS DEFINITION (PREP7) *****
 *********** Nodes for the whole assembly ***********
 *********** Elements for Body 1 "Block" ***********
 *********** Elements for Body 2 "Disk" ***********
 *********** Send User Defined Coordinate System(s) ***********
 *********** Set Reference Temperature ***********
 *********** Send Materials ***********
 *********** Send Sheet Properties ***********
 *********** Create Contact "Frictionless - Block To Disk" ***********
             Real Constant Set For Above Contact Is 4 & 3
 ***************** Define Initial Velocity ***************


 ***** ROUTINE COMPLETED *****  CP =         0.266


 --- Number of total nodes = 3843
 --- Number of contact elements = 328
 --- Number of spring elements = 0
 --- Number of bearing elements = 0
 --- Number of solid elements = 1205
 --- Number of condensed parts = 0
 --- Number of total elements = 1533

 *GET  _WALLBSOL  FROM  ACTI  ITEM=TIME WALL  VALUE=  17.5355556    
 ****************************************************************************
 *************************    SOLUTION       ********************************
 ****************************************************************************

 *****  ANSYS SOLUTION ROUTINE  *****


 PERFORM A TRANSIENT ANALYSIS
  THIS WILL BE A NEW ANALYSIS

 LARGE DEFORMATION ANALYSIS

 STEP BOUNDARY CONDITION KEY= 1

 PARAMETER _THICKRATIO =     0.000000000    

 USE SPARSE MATRIX DIRECT SOLVER

 CONTACT INFORMATION PRINTOUT LEVEL       1

 DO NOT COMBINE ELEMENT MATRIX FILES (.emat) AFTER DISTRIBUTED PARALLEL SOLUTION

 DO NOT COMBINE ELEMENT SAVE DATA FILES (.esav) AFTER DISTRIBUTED PARALLEL SOLUTION

 PERFORM A FULL TRANSIENT ANALYSIS
  USING HHT ALGORITHM

 USE SETTINGS FOR MODERATE SPEED DYNAMIC APPLICATIONS
 SECOND ORDER TRANSIENT PARAMETERS
   GAMMA= 0.1000      (ALPHA= 0.3025      DELTA= 0.6000      ALPHAF= 0.1000      ALPHAM=  0.000    )

 USE FIRST ORDER TRANSIENT PARAMETER THETA=  1.000    

 NLDIAG: Nonlinear diagnostics CONT option is set to ON. 
         Writing frequency : each ITERATION.

 DEFINE RESTART CONTROL FOR LOADSTEP LAST
 AT FREQUENCY OF LAST AND NUMBER FOR OVERWRITE IS   -1

 DELETE RESTART FILES OF ENDSTEP
 ****************************************************
 ******************* SOLVE FOR LS 1 OF 1 ****************

 PRINTOUT RESUMED BY /GOP

 USE AUTOMATIC TIME STEPPING THIS LOAD STEP

 USE INITIAL TIME STEP SIZE OF 0.1000000E-03 FOR ALL  DEGREES OF FREEDOM
 FOR AUTOMATIC TIME STEPPING:
   USE 0.1000000E-04 AS THE MINIMUM TIME STEP SIZE
   USE 0.1000000E-02 AS THE MAXIMUM TIME STEP SIZE

 TIME= 0.20000    

 INCLUDE TRANSIENT EFFECTS FOR  ALL DEGREES OF FREEDOM THIS LOAD STEP

 ERASE THE CURRENT DATABASE OUTPUT CONTROL TABLE.


 WRITE ALL  ITEMS TO THE DATABASE WITH A FREQUENCY OF NONE
   FOR ALL APPLICABLE ENTITIES

 WRITE NSOL ITEMS TO THE DATABASE WITH A FREQUENCY OF   -100
   FOR ALL APPLICABLE ENTITIES

 WRITE RSOL ITEMS TO THE DATABASE WITH A FREQUENCY OF   -100
   FOR ALL APPLICABLE ENTITIES

 WRITE EANG ITEMS TO THE DATABASE WITH A FREQUENCY OF   -100
   FOR ALL APPLICABLE ENTITIES

 WRITE ETMP ITEMS TO THE DATABASE WITH A FREQUENCY OF   -100
   FOR ALL APPLICABLE ENTITIES

 WRITE VENG ITEMS TO THE DATABASE WITH A FREQUENCY OF   -100
   FOR ALL APPLICABLE ENTITIES

 WRITE CONT ITEMS TO THE DATABASE WITH A FREQUENCY OF   -100
   FOR ALL APPLICABLE ENTITIES

 WRITE V    ITEMS TO THE DATABASE WITH A FREQUENCY OF   -100
   FOR ALL APPLICABLE ENTITIES

 WRITE A    ITEMS TO THE DATABASE WITH A FREQUENCY OF   -100
   FOR ALL APPLICABLE ENTITIES

 *GET  ANSINTER_  FROM  ACTI  ITEM=INT        VALUE=  0.00000000    

 *IF  ANSINTER_                         ( =   0.00000     )  NE  
      0                                 ( =   0.00000     )  THEN    

 *ENDIF

 *** NOTE ***                            CP =       0.328   TIME= 17:32:08
 The automatic domain decomposition logic has selected the MESH domain   
 decomposition method with 2 processes per solution.                     

 *****  ANSYS SOLVE    COMMAND  *****

 *** WARNING ***                         CP =       0.328   TIME= 17:32:08
 Element shape checking is currently inactive.  Issue SHPP,ON or         
 SHPP,WARN to reactivate, if desired.                                    

 *** NOTE ***                            CP =       0.328   TIME= 17:32:08
 The model data was checked and warning messages were found.             
  Please review output or errors file (                                  
 C:\Users\ASUS\Documents\ANSYS\ANSYS2021\Sec12-4\_ProjectScratch\Scr2F55 
 5\file0.err ) for these warning messages.                               

 *** SELECTION OF ELEMENT TECHNOLOGIES FOR APPLICABLE ELEMENTS ***
      --- GIVE SUGGESTIONS AND RESET THE KEY OPTIONS ---

 ELEMENT TYPE         1 IS PLANE183 WITH PLANE STRESS OPTION. NO SUGGESTION IS
 AVAILABLE AND NO RESETTING IS NEEDED.

 ELEMENT TYPE         2 IS PLANE183 WITH PLANE STRESS OPTION. NO SUGGESTION IS
 AVAILABLE AND NO RESETTING IS NEEDED.



 *** ANSYS - ENGINEERING ANALYSIS SYSTEM  RELEASE 2021 R1          21.1     ***
 DISTRIBUTED ANSYS Mechanical Enterprise Academic Student      

 00000000  VERSION=WINDOWS x64   17:32:08  MAR 24, 2021 CP=      0.328

 Disk--Transient (A5)                                                          



                       S O L U T I O N   O P T I O N S

   PROBLEM DIMENSIONALITY. . . . . . . . . . . . .2-D                  
   DEGREES OF FREEDOM. . . . . . UX   UY  
   ANALYSIS TYPE . . . . . . . . . . . . . . . . .TRANSIENT            
      SOLUTION METHOD. . . . . . . . . . . . . . .FULL                 
   OFFSET TEMPERATURE FROM ABSOLUTE ZERO . . . . .  273.15    
   NONLINEAR GEOMETRIC EFFECTS . . . . . . . . . .ON
   EQUATION SOLVER OPTION. . . . . . . . . . . . .SPARSE             
   NEWTON-RAPHSON OPTION . . . . . . . . . . . . .PROGRAM CHOSEN   
   GLOBALLY ASSEMBLED MATRIX . . . . . . . . . . .SYMMETRIC  

 *** WARNING ***                         CP =       0.328   TIME= 17:32:08
 No constraints have been defined using the D command.                   

 *** NOTE ***                            CP =       0.328   TIME= 17:32:08
 The step data was checked and warning messages were found.              
  Please review output or errors file (                                  
 C:\Users\ASUS\Documents\ANSYS\ANSYS2021\Sec12-4\_ProjectScratch\Scr2F55 
 5\file0.err ) for these warning messages.                               

 *** NOTE ***                            CP =       0.328   TIME= 17:32:08
 This nonlinear analysis defaults to using the full Newton-Raphson       
 solution procedure.  This can be modified using the NROPT command.      

 *** NOTE ***                            CP =       0.328   TIME= 17:32:08
 The conditions for direct assembly have been met.  No .emat or .erot    
 files will be produced.                                                 

 *** NOTE ***                            CP =       0.344   TIME= 17:32:08
 Symmetric Deformable- deformable contact pair identified by real        
 constant set 3 and contact element type 3 has been set up.  The         
 companion pair has real constant set ID 4.  Both pairs should have the  
 same behavior.                                                          
 ANSYS will deactivate the current pair and keep its companion pair,     
 resulting in asymmetric contact.                                        
 Contact algorithm: Augmented Lagrange method
 Contact detection at: Gauss integration point
 Contact stiffness factor FKN                  1.0000    
 The resulting initial contact stiffness      0.15906    
 Default penetration tolerance factor FTOLN   0.10000    
 The resulting penetration tolerance          0.12574    
 Frictionless contact pair is defined
 Update contact stiffness at each iteration
 Average contact surface length                1.0000    
 Average contact pair depth                    1.2574    
 User defined pinball region PINB             0.55902    
 *WARNING*: Initial penetration is included.

 *** NOTE ***                            CP =       0.344   TIME= 17:32:08
 Min.  Initial gap 5.582527825E-04 was detected between contact element  
 1365 and target element 1533.                                           
 You may move entire target surface by: x= -5.582527825E-04, y=          
 -1.983328682E-18, z= 0, to bring it in contact.                         
 ****************************************
  

 *** NOTE ***                            CP =       0.344   TIME= 17:32:08
 Symmetric Deformable- deformable contact pair identified by real        
 constant set 4 and contact element type 3 has been set up.  The         
 companion pair has real constant set ID 3.  Both pairs should have the  
 same behavior.                                                          
 ANSYS will keep the current pair and deactivate its companion pair,     
 resulting in asymmetric contact.                                        
 Contact algorithm: Augmented Lagrange method
 Contact detection at: Gauss integration point
 Contact stiffness factor FKN                  1.0000    
 The resulting initial contact stiffness      0.15906    
 Default penetration tolerance factor FTOLN   0.10000    
 The resulting penetration tolerance          0.11761    
 Frictionless contact pair is defined
 Update contact stiffness at each iteration
 Average contact surface length               0.99731    
 Average contact pair depth                    1.1761    
 User defined pinball region PINB             0.55902    
 *WARNING*: Initial penetration is included.

 *** NOTE ***                            CP =       0.344   TIME= 17:32:08
 Min.  Initial gap 5.581539273E-04 was detected between contact element  
 1366 and target element 1206.                                           
 You may move entire target surface by: x= 5.581461397E-04, y=           
 2.948446132E-06, z= 0, to bring it in contact.                          
 ****************************************
  

 *** WARNING ***                         CP =       0.344   TIME= 17:32:08
 All selected contact pairs are initially open.  Rigid body motion can   
 occur.  You may use auto CNOF/ICONT by setting KEYOPT(5) to close       
 small gaps.                                                             
  
  

  
  
     D I S T R I B U T E D   D O M A I N   D E C O M P O S E R
  
  ...Number of elements: 1533
  ...Number of nodes:    3843
  ...Decompose to 2 CPU domains
  ...Element load balance ratio =     1.132


                      L O A D   S T E P   O P T I O N S

   LOAD STEP NUMBER. . . . . . . . . . . . . . . .     1
   TIME AT END OF THE LOAD STEP. . . . . . . . . . 0.20000    
   AUTOMATIC TIME STEPPING . . . . . . . . . . . .    ON
      STARTING TIME STEP SIZE. . . . . . . . . . . 0.10000E-03
      MINIMUM TIME STEP SIZE . . . . . . . . . . . 0.10000E-04
      MAXIMUM TIME STEP SIZE . . . . . . . . . . . 0.10000E-02
   MAXIMUM NUMBER OF EQUILIBRIUM ITERATIONS. . . .    15
   STEP CHANGE BOUNDARY CONDITIONS . . . . . . . .   YES
   STRESS-STIFFENING . . . . . . . . . . . . . . .    ON
   TRANSIENT (INERTIA) EFFECTS
      STRUCTURAL DOFS. . . . . . . . . . . . . . .    ON
   TRANSIENT INTEGRATION PARAMETERS
      GAMMA. . . . . . . . . . . . . . . . . . . . 0.10000    
      ALPHA. . . . . . . . . . . . . . . . . . . . 0.30250    
      DELTA. . . . . . . . . . . . . . . . . . . . 0.60000    
      USING HHT TIME INTEGRATION
      ALPHAF . . . . . . . . . . . . . . . . . . . 0.10000    
      ALPHAM . . . . . . . . . . . . . . . . . . .  0.0000    
   TERMINATE ANALYSIS IF NOT CONVERGED . . . . . .YES (EXIT)  
   CONVERGENCE CONTROLS. . . . . . . . . . . . . .USE DEFAULTS
   PRINT OUTPUT CONTROLS . . . . . . . . . . . . .NO PRINTOUT
   DATABASE OUTPUT CONTROLS
      ITEM     FREQUENCY   COMPONENT
       ALL       NONE               
      NSOL       -100               
      RSOL       -100               
      EANG       -100               
      ETMP       -100               
      VENG       -100               
      CONT       -100               
      V          -100               
      A          -100               


 SOLUTION MONITORING INFO IS WRITTEN TO FILE= file.mntr                                                                                                                                                                                                                                                           
 MAXIMUM NUMBER OF EQUILIBRIUM ITERATIONS HAS BEEN MODIFIED              
  TO BE, NEQIT = 25, BY SOLUTION CONTROL LOGIC.                          




            **** CENTER OF MASS, MASS, AND MASS MOMENTS OF INERTIA ****

  CALCULATIONS ASSUME ELEMENT MASS AT ELEMENT CENTROID

  TOTAL MASS =  0.90265E-04

                           MOM. OF INERTIA         MOM. OF INERTIA
  CENTER OF MASS            ABOUT ORIGIN        ABOUT CENTER OF MASS

  XC =   37.823          IXX =   0.6334          IXX =   0.2333    
  YC =   66.581          IYY =   0.2057          IYY =   0.7654E-01
  ZC =   0.0000          IZZ =   0.8391          IZZ =   0.3098    
                         IXY =  -0.1606          IXY =   0.6668E-01
                         IYZ =    0.000          IYZ =    0.000    
                         IZX =    0.000          IZX =    0.000    


  *** MASS SUMMARY BY ELEMENT TYPE ***

  TYPE      MASS
     1  0.400000E-04
     2  0.502654E-04

 Range of element maximum matrix coefficients in global coordinates
 Maximum = 0.556785276 at element 668.                                   
 Minimum = 0.178341995 at element 552.                                   

   *** ELEMENT MATRIX FORMULATION TIMES
     TYPE    NUMBER   ENAME      TOTAL CP  AVE CP

        1       551  PLANE183      0.031   0.000057
        2       654  PLANE183      0.031   0.000048
        3       164  CONTA172      0.000   0.000000
        4       164  TARGE169      0.000   0.000000
 Time at end of element matrix formulation CP = 0.765625.                

 ALL CURRENT ANSYS DATA WRITTEN TO FILE NAME= file.rdb
  FOR POSSIBLE RESUME FROM THIS POINT
     FORCE CONVERGENCE VALUE  =   66.66      CRITERION=  0.5102E-04

 DISTRIBUTED SPARSE MATRIX DIRECT SOLVER.
  Number of equations =        7686,    Maximum wavefront =     42

  Local memory allocated for solver              =      6.084 MB
  Local memory required for in-core solution     =      5.857 MB
  Local memory required for out-of-core solution =      3.876 MB

  Total memory allocated for solver              =     11.241 MB
  Total memory required for in-core solution     =     10.829 MB
  Total memory required for out-of-core solution =      7.479 MB

 *** NOTE ***                            CP =       0.859   TIME= 17:32:08
 The Distributed Sparse Matrix Solver is currently running in the        
 in-core memory mode.  This memory mode uses the most amount of memory   
 in order to avoid using the hard drive as much as possible, which most  
 often results in the fastest solution time.  This mode is recommended   
 if enough physical memory is present to accommodate all of the solver   
 data.                                                                   
 curEqn=   4118  totEqn=   4118 Job CP sec=      0.875
      Factor Done= 100% Factor Wall sec=      0.009 rate=    2624.9 Mflops
 Distributed sparse solver maximum pivot= 73.7763126 at node 1623 UY.    
 Distributed sparse solver minimum pivot= 0.193144117 at node 34 UY.     
 Distributed sparse solver minimum pivot in absolute value= 0.193144117  
 at node 34 UY.                                                          
     DISP CONVERGENCE VALUE   =  0.5000E-01  CRITERION=  0.2551E-02
    EQUIL ITER   1 COMPLETED.  NEW TRIANG MATRIX.  MAX DOF INC= -0.5000E-01
     DISP CONVERGENCE VALUE   =  0.5000E-01  CRITERION=  0.2603E-02
     LINE SEARCH PARAMETER =   1.000     SCALED MAX DOF INC = -0.5000E-01
     FORCE CONVERGENCE VALUE  =  0.1224E-01  CRITERION=  0.5206E-04
    EQUIL ITER   2 COMPLETED.  NEW TRIANG MATRIX.  MAX DOF INC=  0.7445E-02
     DISP CONVERGENCE VALUE   =  0.7442E-02  CRITERION=  0.2666E-02
     LINE SEARCH PARAMETER =  0.9995     SCALED MAX DOF INC =  0.7442E-02
     FORCE CONVERGENCE VALUE  =  0.5213E-04  CRITERION=  0.5312E-04 <<< CONVERGED

 *** WARNING ***                         CP =       1.094   TIME= 17:32:09
 A reference force value times the tolerance is used by the              
 Newton-Raphson method for checking convergence.  The calculated         
 reference FORCE CONVERGENCE VALUE = 0 is less than a threshold.  This   
 threshold is internally calculated.  You can overwrite it by            
 specifying MINREF on the CNVTOL command.  Check results carefully.      
    EQUIL ITER   3 COMPLETED.  NEW TRIANG MATRIX.  MAX DOF INC= -0.3035E-04
     DISP CONVERGENCE VALUE   =  0.3034E-04  CRITERION=  0.2720E-02 <<< CONVERGED
     LINE SEARCH PARAMETER =  0.9998     SCALED MAX DOF INC = -0.3034E-04
    >>> SOLUTION CONVERGED AFTER EQUILIBRIUM ITERATION   3

   *** ELEMENT RESULT CALCULATION TIMES
     TYPE    NUMBER   ENAME      TOTAL CP  AVE CP

        1       551  PLANE183      0.016   0.000028
        2       654  PLANE183      0.031   0.000048
        3       140  CONTA172      0.000   0.000000

   *** NODAL LOAD CALCULATION TIMES
     TYPE    NUMBER   ENAME      TOTAL CP  AVE CP

        1       551  PLANE183      0.000   0.000000
        2       654  PLANE183      0.016   0.000024
        3       140  CONTA172      0.000   0.000000
 *** LOAD STEP     1   SUBSTEP     1  COMPLETED.    CUM ITER =      3
 *** TIME =  0.100000E-03     TIME INC =  0.100000E-03
 *** RESPONSE FREQ =  3.221       PERIOD=  0.3105      PTS/CYC = 0.31E+04
 *** AUTO STEP TIME:  NEXT TIME INC = 0.10000E-03  UNCHANGED

     FORCE CONVERGENCE VALUE  =   66.66      CRITERION=  0.5102E-04
     DISP CONVERGENCE VALUE   =  0.5031E-01  CRITERION=  0.2567E-02
    EQUIL ITER   1 COMPLETED.  NEW TRIANG MATRIX.  MAX DOF INC= -0.5031E-01
     DISP CONVERGENCE VALUE   =  0.5031E-01  CRITERION=  0.2619E-02
     LINE SEARCH PARAMETER =   1.000     SCALED MAX DOF INC = -0.5031E-01
     FORCE CONVERGENCE VALUE  =  0.4285E-02  CRITERION=  0.5206E-04
    EQUIL ITER   2 COMPLETED.  NEW TRIANG MATRIX.  MAX DOF INC=  0.2911E-02
     DISP CONVERGENCE VALUE   =  0.2911E-02  CRITERION=  0.2690E-02
     LINE SEARCH PARAMETER =   1.000     SCALED MAX DOF INC =  0.2911E-02
     FORCE CONVERGENCE VALUE  =  0.2945E-04  CRITERION=  0.5312E-04 <<< CONVERGED
    EQUIL ITER   3 COMPLETED.  NEW TRIANG MATRIX.  MAX DOF INC=  0.3488E-04
     DISP CONVERGENCE VALUE   =  0.3488E-04  CRITERION=  0.2745E-02 <<< CONVERGED
     LINE SEARCH PARAMETER =   1.000     SCALED MAX DOF INC =  0.3488E-04
    >>> SOLUTION CONVERGED AFTER EQUILIBRIUM ITERATION   3
 *** LOAD STEP     1   SUBSTEP     2  COMPLETED.    CUM ITER =      6
 *** TIME =  0.200000E-03     TIME INC =  0.100000E-03
 *** RESPONSE FREQ =  9.344       PERIOD=  0.1070      PTS/CYC = 0.11E+04
 *** AUTO TIME STEP:  NEXT TIME INC = 0.15000E-03  INCREASED (FACTOR = 1.5000)

     FORCE CONVERGENCE VALUE  =   44.44      CRITERION=  0.5102E-04
     DISP CONVERGENCE VALUE   =  0.7546E-01  CRITERION=  0.3850E-02
    EQUIL ITER   1 COMPLETED.  NEW TRIANG MATRIX.  MAX DOF INC= -0.7546E-01
     DISP CONVERGENCE VALUE   =  0.7545E-01  CRITERION=  0.3928E-02
     LINE SEARCH PARAMETER =   1.000     SCALED MAX DOF INC = -0.7545E-01
     FORCE CONVERGENCE VALUE  =  0.5312E-02  CRITERION=  0.5206E-04
    EQUIL ITER   2 COMPLETED.  NEW TRIANG MATRIX.  MAX DOF INC=  0.5155E-02
     DISP CONVERGENCE VALUE   =  0.5155E-02  CRITERION=  0.4055E-02
     LINE SEARCH PARAMETER =   1.000     SCALED MAX DOF INC =  0.5155E-02
     FORCE CONVERGENCE VALUE  =  0.1168E-03  CRITERION=  0.5312E-04
    EQUIL ITER   3 COMPLETED.  NEW TRIANG MATRIX.  MAX DOF INC=  0.1346E-03
     DISP CONVERGENCE VALUE   =  0.1346E-03  CRITERION=  0.4138E-02 <<< CONVERGED
     LINE SEARCH PARAMETER =   1.000     SCALED MAX DOF INC =  0.1346E-03
     FORCE CONVERGENCE VALUE  =  0.7676E-05  CRITERION=  0.5421E-04 <<< CONVERGED
    >>> SOLUTION CONVERGED AFTER EQUILIBRIUM ITERATION   3
 *** LOAD STEP     1   SUBSTEP     3  COMPLETED.    CUM ITER =      9
 *** TIME =  0.350000E-03     TIME INC =  0.150000E-03
 *** RESPONSE FREQ =  11.64       PERIOD=  0.8589E-01  PTS/CYC = 0.57E+03
 *** AUTO TIME STEP:  NEXT TIME INC = 0.22500E-03  INCREASED (FACTOR = 1.5000)

     FORCE CONVERGENCE VALUE  =   29.62      CRITERION=  0.5102E-04
     DISP CONVERGENCE VALUE   =  0.1150      CRITERION=  0.5868E-02
    EQUIL ITER   1 COMPLETED.  NEW TRIANG MATRIX.  MAX DOF INC= -0.1150    
     DISP CONVERGENCE VALUE   =  0.1150      CRITERION=  0.5988E-02
     LINE SEARCH PARAMETER =  0.9999     SCALED MAX DOF INC = -0.1150    
     FORCE CONVERGENCE VALUE  =  0.3210E-01  CRITERION=  0.5206E-04
    EQUIL ITER   2 COMPLETED.  NEW TRIANG MATRIX.  MAX DOF INC= -0.3329E-01
     DISP CONVERGENCE VALUE   =  0.2724E-01  CRITERION=  0.6130E-02
     LINE SEARCH PARAMETER =  0.8184     SCALED MAX DOF INC = -0.2724E-01
     FORCE CONVERGENCE VALUE  =  0.6924E-02  CRITERION=  0.5312E-04
    EQUIL ITER   3 COMPLETED.  NEW TRIANG MATRIX.  MAX DOF INC= -0.4239E-02
     DISP CONVERGENCE VALUE   =  0.4239E-02  CRITERION=  0.6255E-02 <<< CONVERGED
     LINE SEARCH PARAMETER =   1.000     SCALED MAX DOF INC = -0.4239E-02
     FORCE CONVERGENCE VALUE  =  0.5300E-03  CRITERION=  0.5421E-04
    EQUIL ITER   4 COMPLETED.  NEW TRIANG MATRIX.  MAX DOF INC= -0.2968E-03
     DISP CONVERGENCE VALUE   =  0.2968E-03  CRITERION=  0.6383E-02 <<< CONVERGED
     LINE SEARCH PARAMETER =   1.000     SCALED MAX DOF INC = -0.2968E-03
     FORCE CONVERGENCE VALUE  =  0.4184E-04  CRITERION=  0.5531E-04 <<< CONVERGED
    >>> SOLUTION CONVERGED AFTER EQUILIBRIUM ITERATION   4
 *** LOAD STEP     1   SUBSTEP     4  COMPLETED.    CUM ITER =     13
 *** TIME =  0.575000E-03     TIME INC =  0.225000E-03
 *** RESPONSE FREQ =  12.46       PERIOD=  0.8029E-01  PTS/CYC = 0.36E+03
 *** AUTO TIME STEP:  NEXT TIME INC = 0.33750E-03  INCREASED (FACTOR = 1.5000)

     FORCE CONVERGENCE VALUE  =   19.75      CRITERION=  0.5102E-04
     DISP CONVERGENCE VALUE   =  0.1714      CRITERION=  0.8747E-02
    EQUIL ITER   1 COMPLETED.  NEW TRIANG MATRIX.  MAX DOF INC= -0.1714    
     DISP CONVERGENCE VALUE   =  0.1714      CRITERION=  0.8926E-02
     LINE SEARCH PARAMETER =  0.9996     SCALED MAX DOF INC = -0.1714    
     THERE IS TOO MUCH PENETRATION AT      4 CONTACT POINTS OF THE 2D CONTACT ELEMENTS
     FORCE CONVERGENCE VALUE  =  0.7878E-01  CRITERION=  0.5206E-04
    EQUIL ITER   2 COMPLETED.  NEW TRIANG MATRIX.  MAX DOF INC= -0.6082E-01
     DISP CONVERGENCE VALUE   =  0.5156E-01  CRITERION=  0.9108E-02
     LINE SEARCH PARAMETER =  0.8477     SCALED MAX DOF INC = -0.5156E-01
     FORCE CONVERGENCE VALUE  =  0.1375E-01  CRITERION=  0.5312E-04
    EQUIL ITER   3 COMPLETED.  NEW TRIANG MATRIX.  MAX DOF INC=  0.8054E-02
     DISP CONVERGENCE VALUE   =  0.8054E-02  CRITERION=  0.9294E-02 <<< CONVERGED
     LINE SEARCH PARAMETER =   1.000     SCALED MAX DOF INC =  0.8054E-02
     FORCE CONVERGENCE VALUE  =  0.9310E-03  CRITERION=  0.5421E-04
    EQUIL ITER   4 COMPLETED.  NEW TRIANG MATRIX.  MAX DOF INC=  0.6144E-03
     DISP CONVERGENCE VALUE   =  0.6144E-03  CRITERION=  0.9483E-02 <<< CONVERGED
     LINE SEARCH PARAMETER =   1.000     SCALED MAX DOF INC =  0.6144E-03
     FORCE CONVERGENCE VALUE  =  0.6819E-04  CRITERION=  0.5531E-04
    EQUIL ITER   5 COMPLETED.  NEW TRIANG MATRIX.  MAX DOF INC= -0.5678E-04
     DISP CONVERGENCE VALUE   =  0.5678E-04  CRITERION=  0.9677E-02 <<< CONVERGED
     LINE SEARCH PARAMETER =   1.000     SCALED MAX DOF INC = -0.5678E-04
     FORCE CONVERGENCE VALUE  =  0.5195E-05  CRITERION=  0.5644E-04 <<< CONVERGED
    >>> SOLUTION CONVERGED AFTER EQUILIBRIUM ITERATION   5
 *** LOAD STEP     1   SUBSTEP     5  COMPLETED.    CUM ITER =     18
 *** TIME =  0.912500E-03     TIME INC =  0.337500E-03
 *** RESPONSE FREQ =  12.96       PERIOD=  0.7719E-01  PTS/CYC = 0.23E+03
 *** AUTO TIME STEP:  NEXT TIME INC = 0.50625E-03  INCREASED (FACTOR = 1.5000)

     FORCE CONVERGENCE VALUE  =   13.17      CRITERION=  0.5102E-04
     DISP CONVERGENCE VALUE   =  0.2538      CRITERION=  0.1295E-01
    EQUIL ITER   1 COMPLETED.  NEW TRIANG MATRIX.  MAX DOF INC= -0.2538    
     DISP CONVERGENCE VALUE   =  0.2536      CRITERION=  0.1321E-01
     LINE SEARCH PARAMETER =  0.9992     SCALED MAX DOF INC = -0.2536    
     THERE IS TOO MUCH PENETRATION AT      4 CONTACT POINTS OF THE 2D CONTACT ELEMENTS
     FORCE CONVERGENCE VALUE  =  0.1068      CRITERION=  0.5206E-04
    EQUIL ITER   2 COMPLETED.  NEW TRIANG MATRIX.  MAX DOF INC=  0.6927E-01
     DISP CONVERGENCE VALUE   =  0.6054E-01  CRITERION=  0.1348E-01
     LINE SEARCH PARAMETER =  0.8740     SCALED MAX DOF INC =  0.6054E-01
     FORCE CONVERGENCE VALUE  =  0.1651E-01  CRITERION=  0.5312E-04
    EQUIL ITER   3 COMPLETED.  NEW TRIANG MATRIX.  MAX DOF INC=  0.1117E-01
     DISP CONVERGENCE VALUE   =  0.1117E-01  CRITERION=  0.1376E-01 <<< CONVERGED
     LINE SEARCH PARAMETER =   1.000     SCALED MAX DOF INC =  0.1117E-01
     FORCE CONVERGENCE VALUE  =  0.1097E-02  CRITERION=  0.5421E-04
    EQUIL ITER   4 COMPLETED.  NEW TRIANG MATRIX.  MAX DOF INC=  0.1038E-02
     DISP CONVERGENCE VALUE   =  0.1038E-02  CRITERION=  0.1404E-01 <<< CONVERGED
     LINE SEARCH PARAMETER =   1.000     SCALED MAX DOF INC =  0.1038E-02
     FORCE CONVERGENCE VALUE  =  0.8283E-04  CRITERION=  0.5531E-04
    EQUIL ITER   5 COMPLETED.  NEW TRIANG MATRIX.  MAX DOF INC= -0.8017E-04
     DISP CONVERGENCE VALUE   =  0.8017E-04  CRITERION=  0.1433E-01 <<< CONVERGED
     LINE SEARCH PARAMETER =   1.000     SCALED MAX DOF INC = -0.8017E-04
     FORCE CONVERGENCE VALUE  =  0.6807E-05  CRITERION=  0.5644E-04 <<< CONVERGED
    >>> SOLUTION CONVERGED AFTER EQUILIBRIUM ITERATION   5
 *** LOAD STEP     1   SUBSTEP     6  COMPLETED.    CUM ITER =     23
 *** TIME =  0.141875E-02     TIME INC =  0.506250E-03
 *** RESPONSE FREQ =  12.58       PERIOD=  0.7951E-01  PTS/CYC = 0.16E+03
 *** AUTO TIME STEP:  NEXT TIME INC = 0.75937E-03  INCREASED (FACTOR = 1.5000)

     FORCE CONVERGENCE VALUE  =   8.777      CRITERION=  0.5102E-04
     DISP CONVERGENCE VALUE   =  0.3815      CRITERION=  0.1947E-01
    EQUIL ITER   1 COMPLETED.  NEW TRIANG MATRIX.  MAX DOF INC= -0.3815    
     DISP CONVERGENCE VALUE   =  0.3803      CRITERION=  0.1986E-01
     LINE SEARCH PARAMETER =  0.9967     SCALED MAX DOF INC = -0.3803    
     THERE IS TOO MUCH PENETRATION AT      6 CONTACT POINTS OF THE 2D CONTACT ELEMENTS
     FORCE CONVERGENCE VALUE  =  0.2610      CRITERION=  0.5206E-04
    EQUIL ITER   2 COMPLETED.  NEW TRIANG MATRIX.  MAX DOF INC= -0.1081    
     DISP CONVERGENCE VALUE   =  0.1001      CRITERION=  0.2027E-01
     LINE SEARCH PARAMETER =  0.9260     SCALED MAX DOF INC = -0.1001    
     FORCE CONVERGENCE VALUE  =  0.2593E-01  CRITERION=  0.5312E-04
    EQUIL ITER   3 COMPLETED.  NEW TRIANG MATRIX.  MAX DOF INC=  0.1482E-01
     DISP CONVERGENCE VALUE   =  0.1482E-01  CRITERION=  0.2068E-01 <<< CONVERGED
     LINE SEARCH PARAMETER =   1.000     SCALED MAX DOF INC =  0.1482E-01
     FORCE CONVERGENCE VALUE  =  0.1717E-02  CRITERION=  0.5421E-04
    EQUIL ITER   4 COMPLETED.  NEW TRIANG MATRIX.  MAX DOF INC=  0.2051E-02
     DISP CONVERGENCE VALUE   =  0.2051E-02  CRITERION=  0.2110E-01 <<< CONVERGED
     LINE SEARCH PARAMETER =   1.000     SCALED MAX DOF INC =  0.2051E-02
     FORCE CONVERGENCE VALUE  =  0.1275E-03  CRITERION=  0.5531E-04
    EQUIL ITER   5 COMPLETED.  NEW TRIANG MATRIX.  MAX DOF INC= -0.2510E-03
     DISP CONVERGENCE VALUE   =  0.2510E-03  CRITERION=  0.2153E-01 <<< CONVERGED
     LINE SEARCH PARAMETER =   1.000     SCALED MAX DOF INC = -0.2510E-03
     FORCE CONVERGENCE VALUE  =  0.1343E-04  CRITERION=  0.5644E-04 <<< CONVERGED
    >>> SOLUTION CONVERGED AFTER EQUILIBRIUM ITERATION   5
 *** LOAD STEP     1   SUBSTEP     7  COMPLETED.    CUM ITER =     28
 *** TIME =  0.217812E-02     TIME INC =  0.759375E-03
 *** RESPONSE FREQ =  11.88       PERIOD=  0.8421E-01  PTS/CYC = 0.11E+03
 *** AUTO TIME STEP:  NEXT TIME INC = 0.10000E-02  INCREASED (FACTOR = 1.3169)

     FORCE CONVERGENCE VALUE  =   6.664      CRITERION=  0.5102E-04
     DISP CONVERGENCE VALUE   =  0.5030      CRITERION=  0.2566E-01
    EQUIL ITER   1 COMPLETED.  NEW TRIANG MATRIX.  MAX DOF INC= -0.5030    
     DISP CONVERGENCE VALUE   =  0.4984      CRITERION=  0.2618E-01
     LINE SEARCH PARAMETER =  0.9909     SCALED MAX DOF INC = -0.4984    
     THERE IS TOO MUCH PENETRATION AT      8 CONTACT POINTS OF THE 2D CONTACT ELEMENTS
     FORCE CONVERGENCE VALUE  =  0.5325      CRITERION=  0.5206E-04
    EQUIL ITER   2 COMPLETED.  NEW TRIANG MATRIX.  MAX DOF INC= -0.1375    
     DISP CONVERGENCE VALUE   =  0.1317      CRITERION=  0.2672E-01
     LINE SEARCH PARAMETER =  0.9575     SCALED MAX DOF INC = -0.1317    
     FORCE CONVERGENCE VALUE  =  0.3196E-01  CRITERION=  0.5312E-04
    EQUIL ITER   3 COMPLETED.  NEW TRIANG MATRIX.  MAX DOF INC=  0.2656E-01
     DISP CONVERGENCE VALUE   =  0.2656E-01  CRITERION=  0.2726E-01 <<< CONVERGED
     LINE SEARCH PARAMETER =   1.000     SCALED MAX DOF INC =  0.2656E-01
     FORCE CONVERGENCE VALUE  =  0.2063E-02  CRITERION=  0.5421E-04
    EQUIL ITER   4 COMPLETED.  NEW TRIANG MATRIX.  MAX DOF INC=  0.4567E-02
     DISP CONVERGENCE VALUE   =  0.4567E-02  CRITERION=  0.2782E-01 <<< CONVERGED
     LINE SEARCH PARAMETER =   1.000     SCALED MAX DOF INC =  0.4567E-02
     FORCE CONVERGENCE VALUE  =  0.1402E-03  CRITERION=  0.5531E-04
    EQUIL ITER   5 COMPLETED.  NEW TRIANG MATRIX.  MAX DOF INC=  0.6875E-03
     DISP CONVERGENCE VALUE   =  0.6017E-03  CRITERION=  0.2839E-01 <<< CONVERGED
     LINE SEARCH PARAMETER =  0.8752     SCALED MAX DOF INC =  0.6017E-03
     FORCE CONVERGENCE VALUE  =  0.2578E-04  CRITERION=  0.5644E-04 <<< CONVERGED
    >>> SOLUTION CONVERGED AFTER EQUILIBRIUM ITERATION   5
 *** LOAD STEP     1   SUBSTEP     8  COMPLETED.    CUM ITER =     33
 *** TIME =  0.317812E-02     TIME INC =  0.100000E-02
 *** RESPONSE FREQ =  11.50       PERIOD=  0.8699E-01  PTS/CYC =  87.    
 *** AUTO STEP TIME:  NEXT TIME INC = 0.10000E-02  UNCHANGED

     FORCE CONVERGENCE VALUE  =   6.661      CRITERION=  0.5102E-04
     DISP CONVERGENCE VALUE   =  0.5040      CRITERION=  0.2571E-01
    EQUIL ITER   1 COMPLETED.  NEW TRIANG MATRIX.  MAX DOF INC= -0.5040    
     DISP CONVERGENCE VALUE   =  0.5013      CRITERION=  0.2624E-01
     LINE SEARCH PARAMETER =  0.9947     SCALED MAX DOF INC = -0.5013    
     THERE IS TOO MUCH PENETRATION AT      6 CONTACT POINTS OF THE 2D CONTACT ELEMENTS
     FORCE CONVERGENCE VALUE  =  0.3742      CRITERION=  0.5206E-04
    EQUIL ITER   2 COMPLETED.  NEW TRIANG MATRIX.  MAX DOF INC=  0.1142    
     DISP CONVERGENCE VALUE   =  0.1077      CRITERION=  0.2677E-01
     LINE SEARCH PARAMETER =  0.9434     SCALED MAX DOF INC =  0.1077    
     FORCE CONVERGENCE VALUE  =  0.3156E-01  CRITERION=  0.5312E-04
    EQUIL ITER   3 COMPLETED.  NEW TRIANG MATRIX.  MAX DOF INC=  0.1821E-01
     DISP CONVERGENCE VALUE   =  0.1821E-01  CRITERION=  0.2732E-01 <<< CONVERGED
     LINE SEARCH PARAMETER =   1.000     SCALED MAX DOF INC =  0.1821E-01
     FORCE CONVERGENCE VALUE  =  0.1968E-02  CRITERION=  0.5421E-04
    EQUIL ITER   4 COMPLETED.  NEW TRIANG MATRIX.  MAX DOF INC=  0.3140E-02
     DISP CONVERGENCE VALUE   =  0.3140E-02  CRITERION=  0.2788E-01 <<< CONVERGED
     LINE SEARCH PARAMETER =   1.000     SCALED MAX DOF INC =  0.3140E-02
     FORCE CONVERGENCE VALUE  =  0.1429E-03  CRITERION=  0.5531E-04
    EQUIL ITER   5 COMPLETED.  NEW TRIANG MATRIX.  MAX DOF INC=  0.3292E-03
     DISP CONVERGENCE VALUE   =  0.3252E-03  CRITERION=  0.2845E-01 <<< CONVERGED
     LINE SEARCH PARAMETER =  0.9880     SCALED MAX DOF INC =  0.3252E-03
     FORCE CONVERGENCE VALUE  =  0.1637E-04  CRITERION=  0.5644E-04 <<< CONVERGED
    >>> SOLUTION CONVERGED AFTER EQUILIBRIUM ITERATION   5
 *** LOAD STEP     1   SUBSTEP     9  COMPLETED.    CUM ITER =     38
 *** TIME =  0.417812E-02     TIME INC =  0.100000E-02
 *** RESPONSE FREQ =  11.95       PERIOD=  0.8370E-01  PTS/CYC =  84.    
 *** AUTO STEP TIME:  NEXT TIME INC = 0.10000E-02  UNCHANGED

     FORCE CONVERGENCE VALUE  =   6.658      CRITERION=  0.5102E-04
     DISP CONVERGENCE VALUE   =  0.5056      CRITERION=  0.2580E-01
    EQUIL ITER   1 COMPLETED.  NEW TRIANG MATRIX.  MAX DOF INC= -0.5056    
     DISP CONVERGENCE VALUE   =  0.5048      CRITERION=  0.2632E-01
     LINE SEARCH PARAMETER =  0.9985     SCALED MAX DOF INC = -0.5048    
     THERE IS TOO MUCH PENETRATION AT      4 CONTACT POINTS OF THE 2D CONTACT ELEMENTS
     FORCE CONVERGENCE VALUE  =  0.1463      CRITERION=  0.5206E-04
    EQUIL ITER   2 COMPLETED.  NEW TRIANG MATRIX.  MAX DOF INC=  0.7761E-01
     DISP CONVERGENCE VALUE   =  0.6903E-01  CRITERION=  0.2686E-01
     LINE SEARCH PARAMETER =  0.8894     SCALED MAX DOF INC =  0.6903E-01
     FORCE CONVERGENCE VALUE  =  0.2382E-01  CRITERION=  0.5312E-04
    EQUIL ITER   3 COMPLETED.  NEW TRIANG MATRIX.  MAX DOF INC=  0.9489E-02
     DISP CONVERGENCE VALUE   =  0.9489E-02  CRITERION=  0.2741E-01 <<< CONVERGED
     LINE SEARCH PARAMETER =   1.000     SCALED MAX DOF INC =  0.9489E-02
     FORCE CONVERGENCE VALUE  =  0.1271E-02  CRITERION=  0.5421E-04
    EQUIL ITER   4 COMPLETED.  NEW TRIANG MATRIX.  MAX DOF INC=  0.1278E-02
     DISP CONVERGENCE VALUE   =  0.1278E-02  CRITERION=  0.2797E-01 <<< CONVERGED
     LINE SEARCH PARAMETER =   1.000     SCALED MAX DOF INC =  0.1278E-02
     FORCE CONVERGENCE VALUE  =  0.8763E-04  CRITERION=  0.5531E-04
    EQUIL ITER   5 COMPLETED.  NEW TRIANG MATRIX.  MAX DOF INC=  0.1017E-03
     DISP CONVERGENCE VALUE   =  0.1017E-03  CRITERION=  0.2854E-01 <<< CONVERGED
     LINE SEARCH PARAMETER =   1.000     SCALED MAX DOF INC =  0.1017E-03
     FORCE CONVERGENCE VALUE  =  0.6615E-05  CRITERION=  0.5644E-04 <<< CONVERGED
    >>> SOLUTION CONVERGED AFTER EQUILIBRIUM ITERATION   5
 *** LOAD STEP     1   SUBSTEP    10  COMPLETED.    CUM ITER =     43
 *** TIME =  0.517812E-02     TIME INC =  0.100000E-02
 *** RESPONSE FREQ =  12.19       PERIOD=  0.8207E-01  PTS/CYC =  82.    
 *** AUTO STEP TIME:  NEXT TIME INC = 0.10000E-02  UNCHANGED

     FORCE CONVERGENCE VALUE  =   6.651      CRITERION=  0.5102E-04
     DISP CONVERGENCE VALUE   =  0.5078      CRITERION=  0.2591E-01
    EQUIL ITER   1 COMPLETED.  NEW TRIANG MATRIX.  MAX DOF INC= -0.5078    
     DISP CONVERGENCE VALUE   =  0.5074      CRITERION=  0.2644E-01
     LINE SEARCH PARAMETER =  0.9992     SCALED MAX DOF INC = -0.5074    
     THERE IS TOO MUCH PENETRATION AT      2 CONTACT POINTS OF THE 2D CONTACT ELEMENTS
     FORCE CONVERGENCE VALUE  =  0.1095      CRITERION=  0.5206E-04
    EQUIL ITER   2 COMPLETED.  NEW TRIANG MATRIX.  MAX DOF INC=  0.6369E-01
     DISP CONVERGENCE VALUE   =  0.5526E-01  CRITERION=  0.2698E-01
     LINE SEARCH PARAMETER =  0.8677     SCALED MAX DOF INC =  0.5526E-01
     FORCE CONVERGENCE VALUE  =  0.2114E-01  CRITERION=  0.5312E-04
    EQUIL ITER   3 COMPLETED.  NEW TRIANG MATRIX.  MAX DOF INC=  0.7993E-02
     DISP CONVERGENCE VALUE   =  0.7993E-02  CRITERION=  0.2753E-01 <<< CONVERGED
     LINE SEARCH PARAMETER =   1.000     SCALED MAX DOF INC =  0.7993E-02
     FORCE CONVERGENCE VALUE  =  0.1086E-02  CRITERION=  0.5421E-04
    EQUIL ITER   4 COMPLETED.  NEW TRIANG MATRIX.  MAX DOF INC=  0.8035E-03
     DISP CONVERGENCE VALUE   =  0.8035E-03  CRITERION=  0.2809E-01 <<< CONVERGED
     LINE SEARCH PARAMETER =   1.000     SCALED MAX DOF INC =  0.8035E-03
     FORCE CONVERGENCE VALUE  =  0.6931E-04  CRITERION=  0.5531E-04
    EQUIL ITER   5 COMPLETED.  NEW TRIANG MATRIX.  MAX DOF INC=  0.5726E-04
     DISP CONVERGENCE VALUE   =  0.5726E-04  CRITERION=  0.2866E-01 <<< CONVERGED
     LINE SEARCH PARAMETER =   1.000     SCALED MAX DOF INC =  0.5726E-04
     FORCE CONVERGENCE VALUE  =  0.4630E-05  CRITERION=  0.5644E-04 <<< CONVERGED
    >>> SOLUTION CONVERGED AFTER EQUILIBRIUM ITERATION   5
 *** LOAD STEP     1   SUBSTEP    11  COMPLETED.    CUM ITER =     48
 *** TIME =  0.617812E-02     TIME INC =  0.100000E-02
 *** RESPONSE FREQ =  12.11       PERIOD=  0.8256E-01  PTS/CYC =  83.    
 *** AUTO STEP TIME:  NEXT TIME INC = 0.10000E-02  UNCHANGED

     FORCE CONVERGENCE VALUE  =   6.639      CRITERION=  0.5102E-04
     DISP CONVERGENCE VALUE   =  0.5108      CRITERION=  0.2606E-01
    EQUIL ITER   1 COMPLETED.  NEW TRIANG MATRIX.  MAX DOF INC= -0.5108    
     DISP CONVERGENCE VALUE   =  0.5105      CRITERION=  0.2659E-01
     LINE SEARCH PARAMETER =  0.9994     SCALED MAX DOF INC = -0.5105    
     FORCE CONVERGENCE VALUE  =  0.1022      CRITERION=  0.5206E-04
    EQUIL ITER   2 COMPLETED.  NEW TRIANG MATRIX.  MAX DOF INC=  0.5876E-01
     DISP CONVERGENCE VALUE   =  0.5103E-01  CRITERION=  0.2714E-01
     LINE SEARCH PARAMETER =  0.8684     SCALED MAX DOF INC =  0.5103E-01
     FORCE CONVERGENCE VALUE  =  0.2025E-01  CRITERION=  0.5312E-04
    EQUIL ITER   3 COMPLETED.  NEW TRIANG MATRIX.  MAX DOF INC= -0.8472E-02
     DISP CONVERGENCE VALUE   =  0.8472E-02  CRITERION=  0.2769E-01 <<< CONVERGED
     LINE SEARCH PARAMETER =   1.000     SCALED MAX DOF INC = -0.8472E-02
     FORCE CONVERGENCE VALUE  =  0.1096E-02  CRITERION=  0.5421E-04
    EQUIL ITER   4 COMPLETED.  NEW TRIANG MATRIX.  MAX DOF INC= -0.4487E-03
     DISP CONVERGENCE VALUE   =  0.4487E-03  CRITERION=  0.2825E-01 <<< CONVERGED
     LINE SEARCH PARAMETER =   1.000     SCALED MAX DOF INC = -0.4487E-03
     FORCE CONVERGENCE VALUE  =  0.6660E-04  CRITERION=  0.5531E-04
    EQUIL ITER   5 COMPLETED.  NEW TRIANG MATRIX.  MAX DOF INC=  0.5856E-04
     DISP CONVERGENCE VALUE   =  0.5856E-04  CRITERION=  0.2883E-01 <<< CONVERGED
     LINE SEARCH PARAMETER =   1.000     SCALED MAX DOF INC =  0.5856E-04
     FORCE CONVERGENCE VALUE  =  0.4796E-05  CRITERION=  0.5644E-04 <<< CONVERGED
    >>> SOLUTION CONVERGED AFTER EQUILIBRIUM ITERATION   5
 *** LOAD STEP     1   SUBSTEP    12  COMPLETED.    CUM ITER =     53
 *** TIME =  0.717812E-02     TIME INC =  0.100000E-02
 *** RESPONSE FREQ =  11.76       PERIOD=  0.8504E-01  PTS/CYC =  85.    
 *** AUTO STEP TIME:  NEXT TIME INC = 0.10000E-02  UNCHANGED

     FORCE CONVERGENCE VALUE  =   6.621      CRITERION=  0.5102E-04
     DISP CONVERGENCE VALUE   =  0.5150      CRITERION=  0.2628E-01
    EQUIL ITER   1 COMPLETED.  NEW TRIANG MATRIX.  MAX DOF INC= -0.5150    
     DISP CONVERGENCE VALUE   =  0.5150      CRITERION=  0.2681E-01
     LINE SEARCH PARAMETER =  0.9999     SCALED MAX DOF INC = -0.5150    
     FORCE CONVERGENCE VALUE  =  0.4755E-01  CRITERION=  0.5206E-04
    EQUIL ITER   2 COMPLETED.  NEW TRIANG MATRIX.  MAX DOF INC=  0.3908E-01
     DISP CONVERGENCE VALUE   =  0.3477E-01  CRITERION=  0.2736E-01
     LINE SEARCH PARAMETER =  0.8897     SCALED MAX DOF INC =  0.3477E-01
     FORCE CONVERGENCE VALUE  =  0.1042E-01  CRITERION=  0.5312E-04
    EQUIL ITER   3 COMPLETED.  NEW TRIANG MATRIX.  MAX DOF INC= -0.8479E-02
     DISP CONVERGENCE VALUE   =  0.8479E-02  CRITERION=  0.2792E-01 <<< CONVERGED
     LINE SEARCH PARAMETER =   1.000     SCALED MAX DOF INC = -0.8479E-02
     FORCE CONVERGENCE VALUE  =  0.7321E-03  CRITERION=  0.5421E-04
    EQUIL ITER   4 COMPLETED.  NEW TRIANG MATRIX.  MAX DOF INC= -0.2686E-03
     DISP CONVERGENCE VALUE   =  0.2686E-03  CRITERION=  0.2849E-01 <<< CONVERGED
     LINE SEARCH PARAMETER =   1.000     SCALED MAX DOF INC = -0.2686E-03
     FORCE CONVERGENCE VALUE  =  0.3384E-04  CRITERION=  0.5531E-04 <<< CONVERGED
    >>> SOLUTION CONVERGED AFTER EQUILIBRIUM ITERATION   4
 *** LOAD STEP     1   SUBSTEP    13  COMPLETED.    CUM ITER =     57
 *** TIME =  0.817812E-02     TIME INC =  0.100000E-02
 *** RESPONSE FREQ =  11.88       PERIOD=  0.8415E-01  PTS/CYC =  84.    
 *** AUTO STEP TIME:  NEXT TIME INC = 0.10000E-02  UNCHANGED

     FORCE CONVERGENCE VALUE  =   6.595      CRITERION=  0.5102E-04
     DISP CONVERGENCE VALUE   =  0.5201      CRITERION=  0.2654E-01
    EQUIL ITER   1 COMPLETED.  NEW TRIANG MATRIX.  MAX DOF INC= -0.5201    
     DISP CONVERGENCE VALUE   =  0.5201      CRITERION=  0.2708E-01
     LINE SEARCH PARAMETER =   1.000     SCALED MAX DOF INC = -0.5201    
     FORCE CONVERGENCE VALUE  =  0.1570E-01  CRITERION=  0.5206E-04
    EQUIL ITER   2 COMPLETED.  NEW TRIANG MATRIX.  MAX DOF INC=  0.1548E-01
     DISP CONVERGENCE VALUE   =  0.1546E-01  CRITERION=  0.2763E-01 <<< CONVERGED
     LINE SEARCH PARAMETER =  0.9989     SCALED MAX DOF INC =  0.1546E-01
     FORCE CONVERGENCE VALUE  =  0.1329E-03  CRITERION=  0.5312E-04
    EQUIL ITER   3 COMPLETED.  NEW TRIANG MATRIX.  MAX DOF INC=  0.3429E-03
     DISP CONVERGENCE VALUE   =  0.3358E-03  CRITERION=  0.2820E-01 <<< CONVERGED
     LINE SEARCH PARAMETER =  0.9793     SCALED MAX DOF INC =  0.3358E-03
     FORCE CONVERGENCE VALUE  =  0.8522E-05  CRITERION=  0.5421E-04 <<< CONVERGED
    >>> SOLUTION CONVERGED AFTER EQUILIBRIUM ITERATION   3
 *** LOAD STEP     1   SUBSTEP    14  COMPLETED.    CUM ITER =     60
 *** TIME =  0.917812E-02     TIME INC =  0.100000E-02
 *** RESPONSE FREQ =  11.90       PERIOD=  0.8407E-01  PTS/CYC =  84.    
 *** AUTO STEP TIME:  NEXT TIME INC = 0.10000E-02  UNCHANGED

     FORCE CONVERGENCE VALUE  =   6.560      CRITERION=  0.5102E-04
     DISP CONVERGENCE VALUE   =  0.5258      CRITERION=  0.2683E-01
    EQUIL ITER   1 COMPLETED.  NEW TRIANG MATRIX.  MAX DOF INC= -0.5258    
     DISP CONVERGENCE VALUE   =  0.5258      CRITERION=  0.2738E-01
     LINE SEARCH PARAMETER =   1.000     SCALED MAX DOF INC = -0.5258    
     FORCE CONVERGENCE VALUE  =  0.7188E-02  CRITERION=  0.5206E-04
    EQUIL ITER   2 COMPLETED.  NEW TRIANG MATRIX.  MAX DOF INC= -0.3685E-02
     DISP CONVERGENCE VALUE   =  0.3685E-02  CRITERION=  0.2794E-01 <<< CONVERGED
     LINE SEARCH PARAMETER =   1.000     SCALED MAX DOF INC = -0.3685E-02
     FORCE CONVERGENCE VALUE  =  0.1208E-03  CRITERION=  0.5312E-04
    EQUIL ITER   3 COMPLETED.  NEW TRIANG MATRIX.  MAX DOF INC= -0.1462E-03
     DISP CONVERGENCE VALUE   =  0.1462E-03  CRITERION=  0.2851E-01 <<< CONVERGED
     LINE SEARCH PARAMETER =   1.000     SCALED MAX DOF INC = -0.1462E-03
     FORCE CONVERGENCE VALUE  =  0.5292E-05  CRITERION=  0.5421E-04 <<< CONVERGED
    >>> SOLUTION CONVERGED AFTER EQUILIBRIUM ITERATION   3
 *** LOAD STEP     1   SUBSTEP    15  COMPLETED.    CUM ITER =     63
 *** TIME =  0.101781E-01     TIME INC =  0.100000E-02
 *** RESPONSE FREQ =  11.65       PERIOD=  0.8585E-01  PTS/CYC =  86.    
 *** AUTO STEP TIME:  NEXT TIME INC = 0.10000E-02  UNCHANGED

     FORCE CONVERGENCE VALUE  =   6.515      CRITERION=  0.5102E-04
     DISP CONVERGENCE VALUE   =  0.5323      CRITERION=  0.2716E-01
    EQUIL ITER   1 COMPLETED.  NEW TRIANG MATRIX.  MAX DOF INC= -0.5323    
     DISP CONVERGENCE VALUE   =  0.5323      CRITERION=  0.2771E-01
     LINE SEARCH PARAMETER =   1.000     SCALED MAX DOF INC = -0.5323    
     FORCE CONVERGENCE VALUE  =  0.8427E-02  CRITERION=  0.5206E-04
    EQUIL ITER   2 COMPLETED.  NEW TRIANG MATRIX.  MAX DOF INC=  0.8796E-02
     DISP CONVERGENCE VALUE   =  0.8796E-02  CRITERION=  0.2830E-01 <<< CONVERGED
     LINE SEARCH PARAMETER =   1.000     SCALED MAX DOF INC =  0.8796E-02
     FORCE CONVERGENCE VALUE  =  0.1692E-03  CRITERION=  0.5312E-04
    EQUIL ITER   3 COMPLETED.  NEW TRIANG MATRIX.  MAX DOF INC= -0.2850E-03
     DISP CONVERGENCE VALUE   =  0.2840E-03  CRITERION=  0.2887E-01 <<< CONVERGED
     LINE SEARCH PARAMETER =  0.9965     SCALED MAX DOF INC = -0.2840E-03
     FORCE CONVERGENCE VALUE  =  0.8049E-05  CRITERION=  0.5421E-04 <<< CONVERGED
    >>> SOLUTION CONVERGED AFTER EQUILIBRIUM ITERATION   3
 *** LOAD STEP     1   SUBSTEP    16  COMPLETED.    CUM ITER =     66
 *** TIME =  0.111781E-01     TIME INC =  0.100000E-02
 *** RESPONSE FREQ =  11.72       PERIOD=  0.8531E-01  PTS/CYC =  85.    
 *** AUTO STEP TIME:  NEXT TIME INC = 0.10000E-02  UNCHANGED

     FORCE CONVERGENCE VALUE  =   6.458      CRITERION=  0.5102E-04
     DISP CONVERGENCE VALUE   =  0.5374      CRITERION=  0.2742E-01
    EQUIL ITER   1 COMPLETED.  NEW TRIANG MATRIX.  MAX DOF INC= -0.5374    
     DISP CONVERGENCE VALUE   =  0.5374      CRITERION=  0.2798E-01
     LINE SEARCH PARAMETER =   1.000     SCALED MAX DOF INC = -0.5374    
     FORCE CONVERGENCE VALUE  =  0.7630E-02  CRITERION=  0.5206E-04
    EQUIL ITER   2 COMPLETED.  NEW TRIANG MATRIX.  MAX DOF INC=  0.5278E-02
     DISP CONVERGENCE VALUE   =  0.5278E-02  CRITERION=  0.2859E-01 <<< CONVERGED
     LINE SEARCH PARAMETER =   1.000     SCALED MAX DOF INC =  0.5278E-02
     FORCE CONVERGENCE VALUE  =  0.2169E-03  CRITERION=  0.5312E-04
    EQUIL ITER   3 COMPLETED.  NEW TRIANG MATRIX.  MAX DOF INC=  0.2501E-03
     DISP CONVERGENCE VALUE   =  0.2501E-03  CRITERION=  0.2917E-01 <<< CONVERGED
     LINE SEARCH PARAMETER =   1.000     SCALED MAX DOF INC =  0.2501E-03
     FORCE CONVERGENCE VALUE  =  0.1014E-04  CRITERION=  0.5421E-04 <<< CONVERGED
    >>> SOLUTION CONVERGED AFTER EQUILIBRIUM ITERATION   3
 *** LOAD STEP     1   SUBSTEP    17  COMPLETED.    CUM ITER =     69
 *** TIME =  0.121781E-01     TIME INC =  0.100000E-02
 *** RESPONSE FREQ =  11.43       PERIOD=  0.8751E-01  PTS/CYC =  88.    
 *** AUTO STEP TIME:  NEXT TIME INC = 0.10000E-02  UNCHANGED

     FORCE CONVERGENCE VALUE  =   6.392      CRITERION=  0.5102E-04
     DISP CONVERGENCE VALUE   =  0.5414      CRITERION=  0.2762E-01
    EQUIL ITER   1 COMPLETED.  NEW TRIANG MATRIX.  MAX DOF INC= -0.5414    
     DISP CONVERGENCE VALUE   =  0.5414      CRITERION=  0.2819E-01
     LINE SEARCH PARAMETER =   1.000     SCALED MAX DOF INC = -0.5414    
     FORCE CONVERGENCE VALUE  =  0.7303E-02  CRITERION=  0.5206E-04
    EQUIL ITER   2 COMPLETED.  NEW TRIANG MATRIX.  MAX DOF INC=  0.3185E-02
     DISP CONVERGENCE VALUE   =  0.3179E-02  CRITERION=  0.2882E-01 <<< CONVERGED
     LINE SEARCH PARAMETER =  0.9982     SCALED MAX DOF INC =  0.3179E-02
     FORCE CONVERGENCE VALUE  =  0.2290E-03  CRITERION=  0.5312E-04
    EQUIL ITER   3 COMPLETED.  NEW TRIANG MATRIX.  MAX DOF INC=  0.3035E-03
     DISP CONVERGENCE VALUE   =  0.3035E-03  CRITERION=  0.2941E-01 <<< CONVERGED
     LINE SEARCH PARAMETER =   1.000     SCALED MAX DOF INC =  0.3035E-03
     FORCE CONVERGENCE VALUE  =  0.7650E-05  CRITERION=  0.5421E-04 <<< CONVERGED
    >>> SOLUTION CONVERGED AFTER EQUILIBRIUM ITERATION   3
 *** LOAD STEP     1   SUBSTEP    18  COMPLETED.    CUM ITER =     72
 *** TIME =  0.131781E-01     TIME INC =  0.100000E-02
 *** RESPONSE FREQ =  11.31       PERIOD=  0.8845E-01  PTS/CYC =  88.    
 *** AUTO STEP TIME:  NEXT TIME INC = 0.10000E-02  UNCHANGED

     FORCE CONVERGENCE VALUE  =   6.319      CRITERION=  0.5102E-04
     DISP CONVERGENCE VALUE   =  0.5429      CRITERION=  0.2770E-01
    EQUIL ITER   1 COMPLETED.  NEW TRIANG MATRIX.  MAX DOF INC= -0.5429    
     DISP CONVERGENCE VALUE   =  0.5429      CRITERION=  0.2826E-01
     LINE SEARCH PARAMETER =   1.000     SCALED MAX DOF INC = -0.5429    
     FORCE CONVERGENCE VALUE  =  0.7542E-02  CRITERION=  0.5206E-04
    EQUIL ITER   2 COMPLETED.  NEW TRIANG MATRIX.  MAX DOF INC= -0.4905E-02
     DISP CONVERGENCE VALUE   =  0.4884E-02  CRITERION=  0.2890E-01 <<< CONVERGED
     LINE SEARCH PARAMETER =  0.9957     SCALED MAX DOF INC = -0.4884E-02
     FORCE CONVERGENCE VALUE  =  0.2024E-03  CRITERION=  0.5312E-04
    EQUIL ITER   3 COMPLETED.  NEW TRIANG MATRIX.  MAX DOF INC=  0.2309E-03
     DISP CONVERGENCE VALUE   =  0.2309E-03  CRITERION=  0.2949E-01 <<< CONVERGED
     LINE SEARCH PARAMETER =   1.000     SCALED MAX DOF INC =  0.2309E-03
     FORCE CONVERGENCE VALUE  =  0.8518E-05  CRITERION=  0.5421E-04 <<< CONVERGED
    >>> SOLUTION CONVERGED AFTER EQUILIBRIUM ITERATION   3
 *** LOAD STEP     1   SUBSTEP    19  COMPLETED.    CUM ITER =     75
 *** TIME =  0.141781E-01     TIME INC =  0.100000E-02
 *** RESPONSE FREQ =  11.18       PERIOD=  0.8947E-01  PTS/CYC =  89.    
 *** AUTO STEP TIME:  NEXT TIME INC = 0.10000E-02  UNCHANGED

     FORCE CONVERGENCE VALUE  =   6.239      CRITERION=  0.5102E-04
     DISP CONVERGENCE VALUE   =  0.5414      CRITERION=  0.2775E-01
    EQUIL ITER   1 COMPLETED.  NEW TRIANG MATRIX.  MAX DOF INC= -0.5414    
     DISP CONVERGENCE VALUE   =  0.5414      CRITERION=  0.2832E-01
     LINE SEARCH PARAMETER =   1.000     SCALED MAX DOF INC = -0.5414    
     FORCE CONVERGENCE VALUE  =  0.7183E-02  CRITERION=  0.5206E-04
    EQUIL ITER   2 COMPLETED.  NEW TRIANG MATRIX.  MAX DOF INC= -0.7081E-02
     DISP CONVERGENCE VALUE   =  0.7047E-02  CRITERION=  0.2890E-01 <<< CONVERGED
     LINE SEARCH PARAMETER =  0.9952     SCALED MAX DOF INC = -0.7047E-02
     FORCE CONVERGENCE VALUE  =  0.1014E-03  CRITERION=  0.5312E-04
    EQUIL ITER   3 COMPLETED.  NEW TRIANG MATRIX.  MAX DOF INC=  0.1174E-03
     DISP CONVERGENCE VALUE   =  0.1165E-03  CRITERION=  0.2949E-01 <<< CONVERGED
     LINE SEARCH PARAMETER =  0.9921     SCALED MAX DOF INC =  0.1165E-03
     FORCE CONVERGENCE VALUE  =  0.3476E-05  CRITERION=  0.5421E-04 <<< CONVERGED
    >>> SOLUTION CONVERGED AFTER EQUILIBRIUM ITERATION   3
 *** LOAD STEP     1   SUBSTEP    20  COMPLETED.    CUM ITER =     78
 *** TIME =  0.151781E-01     TIME INC =  0.100000E-02
 *** RESPONSE FREQ =  11.08       PERIOD=  0.9022E-01  PTS/CYC =  90.    
 *** AUTO STEP TIME:  NEXT TIME INC = 0.10000E-02  UNCHANGED

     FORCE CONVERGENCE VALUE  =   6.155      CRITERION=  0.5102E-04
     DISP CONVERGENCE VALUE   =  0.5371      CRITERION=  0.2775E-01
    EQUIL ITER   1 COMPLETED.  NEW TRIANG MATRIX.  MAX DOF INC= -0.5371    
     DISP CONVERGENCE VALUE   =  0.5371      CRITERION=  0.2832E-01
     LINE SEARCH PARAMETER =   1.000     SCALED MAX DOF INC = -0.5371    
     FORCE CONVERGENCE VALUE  =  0.7048E-02  CRITERION=  0.5206E-04
    EQUIL ITER   2 COMPLETED.  NEW TRIANG MATRIX.  MAX DOF INC= -0.7401E-02
     DISP CONVERGENCE VALUE   =  0.7401E-02  CRITERION=  0.2890E-01 <<< CONVERGED
     LINE SEARCH PARAMETER =   1.000     SCALED MAX DOF INC = -0.7401E-02
     FORCE CONVERGENCE VALUE  =  0.1201E-03  CRITERION=  0.5312E-04
    EQUIL ITER   3 COMPLETED.  NEW TRIANG MATRIX.  MAX DOF INC= -0.9941E-04
     DISP CONVERGENCE VALUE   =  0.9941E-04  CRITERION=  0.2949E-01 <<< CONVERGED
     LINE SEARCH PARAMETER =   1.000     SCALED MAX DOF INC = -0.9941E-04
     FORCE CONVERGENCE VALUE  =  0.5368E-05  CRITERION=  0.5421E-04 <<< CONVERGED
    >>> SOLUTION CONVERGED AFTER EQUILIBRIUM ITERATION   3
 *** LOAD STEP     1   SUBSTEP    21  COMPLETED.    CUM ITER =     81
 *** TIME =  0.161781E-01     TIME INC =  0.100000E-02
 *** RESPONSE FREQ =  11.05       PERIOD=  0.9048E-01  PTS/CYC =  90.    
 *** AUTO STEP TIME:  NEXT TIME INC = 0.10000E-02  UNCHANGED

     FORCE CONVERGENCE VALUE  =   6.070      CRITERION=  0.5102E-04
     DISP CONVERGENCE VALUE   =  0.5302      CRITERION=  0.2775E-01
    EQUIL ITER   1 COMPLETED.  NEW TRIANG MATRIX.  MAX DOF INC= -0.5302    
     DISP CONVERGENCE VALUE   =  0.5302      CRITERION=  0.2832E-01
     LINE SEARCH PARAMETER =   1.000     SCALED MAX DOF INC = -0.5302    
     FORCE CONVERGENCE VALUE  =  0.7155E-02  CRITERION=  0.5206E-04
    EQUIL ITER   2 COMPLETED.  NEW TRIANG MATRIX.  MAX DOF INC= -0.6462E-02
     DISP CONVERGENCE VALUE   =  0.6438E-02  CRITERION=  0.2890E-01 <<< CONVERGED
     LINE SEARCH PARAMETER =  0.9962     SCALED MAX DOF INC = -0.6438E-02
     FORCE CONVERGENCE VALUE  =  0.8239E-04  CRITERION=  0.5312E-04
    EQUIL ITER   3 COMPLETED.  NEW TRIANG MATRIX.  MAX DOF INC=  0.8803E-04
     DISP CONVERGENCE VALUE   =  0.8790E-04  CRITERION=  0.2949E-01 <<< CONVERGED
     LINE SEARCH PARAMETER =  0.9985     SCALED MAX DOF INC =  0.8790E-04
     FORCE CONVERGENCE VALUE  =  0.2098E-05  CRITERION=  0.5421E-04 <<< CONVERGED
    >>> SOLUTION CONVERGED AFTER EQUILIBRIUM ITERATION   3
 *** LOAD STEP     1   SUBSTEP    22  COMPLETED.    CUM ITER =     84
 *** TIME =  0.171781E-01     TIME INC =  0.100000E-02
 *** RESPONSE FREQ =  11.04       PERIOD=  0.9057E-01  PTS/CYC =  91.    
 *** AUTO STEP TIME:  NEXT TIME INC = 0.10000E-02  UNCHANGED

     FORCE CONVERGENCE VALUE  =   5.986      CRITERION=  0.5102E-04
     DISP CONVERGENCE VALUE   =  0.5221      CRITERION=  0.2775E-01
    EQUIL ITER   1 COMPLETED.  NEW TRIANG MATRIX.  MAX DOF INC= -0.5221    
     DISP CONVERGENCE VALUE   =  0.5221      CRITERION=  0.2832E-01
     LINE SEARCH PARAMETER =   1.000     SCALED MAX DOF INC = -0.5221    
     FORCE CONVERGENCE VALUE  =  0.6842E-02  CRITERION=  0.5206E-04
    EQUIL ITER   2 COMPLETED.  NEW TRIANG MATRIX.  MAX DOF INC= -0.7333E-02
     DISP CONVERGENCE VALUE   =  0.7321E-02  CRITERION=  0.2890E-01 <<< CONVERGED
     LINE SEARCH PARAMETER =  0.9984     SCALED MAX DOF INC = -0.7321E-02
     FORCE CONVERGENCE VALUE  =  0.1443E-03  CRITERION=  0.5312E-04
    EQUIL ITER   3 COMPLETED.  NEW TRIANG MATRIX.  MAX DOF INC= -0.1631E-03
     DISP CONVERGENCE VALUE   =  0.1622E-03  CRITERION=  0.2949E-01 <<< CONVERGED
     LINE SEARCH PARAMETER =  0.9944     SCALED MAX DOF INC = -0.1622E-03
     FORCE CONVERGENCE VALUE  =  0.6139E-05  CRITERION=  0.5421E-04 <<< CONVERGED
    >>> SOLUTION CONVERGED AFTER EQUILIBRIUM ITERATION   3
 *** LOAD STEP     1   SUBSTEP    23  COMPLETED.    CUM ITER =     87
 *** TIME =  0.181781E-01     TIME INC =  0.100000E-02
 *** RESPONSE FREQ =  10.83       PERIOD=  0.9230E-01  PTS/CYC =  92.    
 *** AUTO STEP TIME:  NEXT TIME INC = 0.10000E-02  UNCHANGED

     FORCE CONVERGENCE VALUE  =   5.904      CRITERION=  0.5102E-04
     DISP CONVERGENCE VALUE   =  0.5138      CRITERION=  0.2775E-01
    EQUIL ITER   1 COMPLETED.  NEW TRIANG MATRIX.  MAX DOF INC= -0.5138    
     DISP CONVERGENCE VALUE   =  0.5138      CRITERION=  0.2832E-01
     LINE SEARCH PARAMETER =   1.000     SCALED MAX DOF INC = -0.5138    
     FORCE CONVERGENCE VALUE  =  0.7532E-02  CRITERION=  0.5206E-04
    EQUIL ITER   2 COMPLETED.  NEW TRIANG MATRIX.  MAX DOF INC= -0.7710E-02
     DISP CONVERGENCE VALUE   =  0.7620E-02  CRITERION=  0.2890E-01 <<< CONVERGED
     LINE SEARCH PARAMETER =  0.9884     SCALED MAX DOF INC = -0.7620E-02
     FORCE CONVERGENCE VALUE  =  0.1727E-03  CRITERION=  0.5312E-04
    EQUIL ITER   3 COMPLETED.  NEW TRIANG MATRIX.  MAX DOF INC= -0.1788E-03
     DISP CONVERGENCE VALUE   =  0.1788E-03  CRITERION=  0.2949E-01 <<< CONVERGED
     LINE SEARCH PARAMETER =   1.000     SCALED MAX DOF INC = -0.1788E-03
     FORCE CONVERGENCE VALUE  =  0.5466E-05  CRITERION=  0.5421E-04 <<< CONVERGED
    >>> SOLUTION CONVERGED AFTER EQUILIBRIUM ITERATION   3
 *** LOAD STEP     1   SUBSTEP    24  COMPLETED.    CUM ITER =     90
 *** TIME =  0.191781E-01     TIME INC =  0.100000E-02
 *** RESPONSE FREQ =  10.69       PERIOD=  0.9354E-01  PTS/CYC =  94.    
 *** AUTO STEP TIME:  NEXT TIME INC = 0.10000E-02  UNCHANGED

     FORCE CONVERGENCE VALUE  =   5.821      CRITERION=  0.5102E-04
     DISP CONVERGENCE VALUE   =  0.5068      CRITERION=  0.2775E-01
    EQUIL ITER   1 COMPLETED.  NEW TRIANG MATRIX.  MAX DOF INC= -0.5068    
     DISP CONVERGENCE VALUE   =  0.5068      CRITERION=  0.2832E-01
     LINE SEARCH PARAMETER =   1.000     SCALED MAX DOF INC = -0.5068    
     FORCE CONVERGENCE VALUE  =  0.6783E-02  CRITERION=  0.5206E-04
    EQUIL ITER   2 COMPLETED.  NEW TRIANG MATRIX.  MAX DOF INC=  0.5255E-02
     DISP CONVERGENCE VALUE   =  0.5219E-02  CRITERION=  0.2890E-01 <<< CONVERGED
     LINE SEARCH PARAMETER =  0.9932     SCALED MAX DOF INC =  0.5219E-02
     FORCE CONVERGENCE VALUE  =  0.1769E-03  CRITERION=  0.5312E-04
    EQUIL ITER   3 COMPLETED.  NEW TRIANG MATRIX.  MAX DOF INC=  0.1087E-03
     DISP CONVERGENCE VALUE   =  0.1087E-03  CRITERION=  0.2949E-01 <<< CONVERGED
     LINE SEARCH PARAMETER =   1.000     SCALED MAX DOF INC =  0.1087E-03
     FORCE CONVERGENCE VALUE  =  0.6115E-05  CRITERION=  0.5421E-04 <<< CONVERGED
    >>> SOLUTION CONVERGED AFTER EQUILIBRIUM ITERATION   3
 *** LOAD STEP     1   SUBSTEP    25  COMPLETED.    CUM ITER =     93
 *** TIME =  0.201781E-01     TIME INC =  0.100000E-02
 *** RESPONSE FREQ =  10.81       PERIOD=  0.9250E-01  PTS/CYC =  93.    
 *** AUTO STEP TIME:  NEXT TIME INC = 0.10000E-02  UNCHANGED

     FORCE CONVERGENCE VALUE  =   5.731      CRITERION=  0.5102E-04
     DISP CONVERGENCE VALUE   =  0.5163      CRITERION=  0.2775E-01
    EQUIL ITER   1 COMPLETED.  NEW TRIANG MATRIX.  MAX DOF INC=  0.5163    
     DISP CONVERGENCE VALUE   =  0.5163      CRITERION=  0.2832E-01
     LINE SEARCH PARAMETER =   1.000     SCALED MAX DOF INC =  0.5163    
     FORCE CONVERGENCE VALUE  =  0.6256E-02  CRITERION=  0.5206E-04
    EQUIL ITER   2 COMPLETED.  NEW TRIANG MATRIX.  MAX DOF INC= -0.5258E-02
     DISP CONVERGENCE VALUE   =  0.5239E-02  CRITERION=  0.2890E-01 <<< CONVERGED
     LINE SEARCH PARAMETER =  0.9964     SCALED MAX DOF INC = -0.5239E-02
     FORCE CONVERGENCE VALUE  =  0.7048E-04  CRITERION=  0.5312E-04
    EQUIL ITER   3 COMPLETED.  NEW TRIANG MATRIX.  MAX DOF INC= -0.9952E-04
     DISP CONVERGENCE VALUE   =  0.9952E-04  CRITERION=  0.2949E-01 <<< CONVERGED
     LINE SEARCH PARAMETER =   1.000     SCALED MAX DOF INC = -0.9952E-04
     FORCE CONVERGENCE VALUE  =  0.8529E-06  CRITERION=  0.5421E-04 <<< CONVERGED
    >>> SOLUTION CONVERGED AFTER EQUILIBRIUM ITERATION   3
 *** LOAD STEP     1   SUBSTEP    26  COMPLETED.    CUM ITER =     96
 *** TIME =  0.211781E-01     TIME INC =  0.100000E-02
 *** RESPONSE FREQ =  10.89       PERIOD=  0.9179E-01  PTS/CYC =  92.    
 *** AUTO STEP TIME:  NEXT TIME INC = 0.10000E-02  UNCHANGED

     FORCE CONVERGENCE VALUE  =   5.636      CRITERION=  0.5102E-04
     DISP CONVERGENCE VALUE   =  0.6193      CRITERION=  0.3160E-01
    EQUIL ITER   1 COMPLETED.  NEW TRIANG MATRIX.  MAX DOF INC=  0.6193    
     DISP CONVERGENCE VALUE   =  0.6193      CRITERION=  0.3224E-01
     LINE SEARCH PARAMETER =   1.000     SCALED MAX DOF INC =  0.6193    
     FORCE CONVERGENCE VALUE  =  0.6261E-02  CRITERION=  0.5206E-04
    EQUIL ITER   2 COMPLETED.  NEW TRIANG MATRIX.  MAX DOF INC=  0.7459E-02
     DISP CONVERGENCE VALUE   =  0.7456E-02  CRITERION=  0.3330E-01 <<< CONVERGED
     LINE SEARCH PARAMETER =  0.9997     SCALED MAX DOF INC =  0.7456E-02
     FORCE CONVERGENCE VALUE  =  0.9994E-04  CRITERION=  0.5312E-04
    EQUIL ITER   3 COMPLETED.  NEW TRIANG MATRIX.  MAX DOF INC= -0.1225E-03
     DISP CONVERGENCE VALUE   =  0.1225E-03  CRITERION=  0.3398E-01 <<< CONVERGED
     LINE SEARCH PARAMETER =   1.000     SCALED MAX DOF INC = -0.1225E-03
     FORCE CONVERGENCE VALUE  =  0.5249E-05  CRITERION=  0.5421E-04 <<< CONVERGED
    >>> SOLUTION CONVERGED AFTER EQUILIBRIUM ITERATION   3
 *** LOAD STEP     1   SUBSTEP    27  COMPLETED.    CUM ITER =     99
 *** TIME =  0.221781E-01     TIME INC =  0.100000E-02
 *** RESPONSE FREQ =  10.79       PERIOD=  0.9268E-01  PTS/CYC =  93.    
 *** AUTO STEP TIME:  NEXT TIME INC = 0.10000E-02  UNCHANGED

     FORCE CONVERGENCE VALUE  =   5.544      CRITERION=  0.5102E-04
     DISP CONVERGENCE VALUE   =  0.6105      CRITERION=  0.3198E-01
    EQUIL ITER   1 COMPLETED.  NEW TRIANG MATRIX.  MAX DOF INC=  0.6105    
     DISP CONVERGENCE VALUE   =  0.6105      CRITERION=  0.3263E-01
     LINE SEARCH PARAMETER =   1.000     SCALED MAX DOF INC =  0.6105    
     FORCE CONVERGENCE VALUE  =  0.6063E-02  CRITERION=  0.5206E-04
    EQUIL ITER   2 COMPLETED.  NEW TRIANG MATRIX.  MAX DOF INC=  0.5738E-02
     DISP CONVERGENCE VALUE   =  0.5731E-02  CRITERION=  0.3330E-01 <<< CONVERGED
     LINE SEARCH PARAMETER =  0.9988     SCALED MAX DOF INC =  0.5731E-02
     FORCE CONVERGENCE VALUE  =  0.4907E-04  CRITERION=  0.5312E-04 <<< CONVERGED
    >>> SOLUTION CONVERGED AFTER EQUILIBRIUM ITERATION   2
 *** LOAD STEP     1   SUBSTEP    28  COMPLETED.    CUM ITER =    101
 *** TIME =  0.231781E-01     TIME INC =  0.100000E-02
 *** RESPONSE FREQ =  10.54       PERIOD=  0.9486E-01  PTS/CYC =  95.    
 *** AUTO STEP TIME:  NEXT TIME INC = 0.10000E-02  UNCHANGED

     FORCE CONVERGENCE VALUE  =   5.462      CRITERION=  0.5102E-04
     DISP CONVERGENCE VALUE   =  0.5037      CRITERION=  0.3198E-01
    EQUIL ITER   1 COMPLETED.  NEW TRIANG MATRIX.  MAX DOF INC= -0.5037    
     DISP CONVERGENCE VALUE   =  0.5037      CRITERION=  0.3263E-01
     LINE SEARCH PARAMETER =   1.000     SCALED MAX DOF INC = -0.5037    
     FORCE CONVERGENCE VALUE  =  0.6155E-02  CRITERION=  0.5206E-04
    EQUIL ITER   2 COMPLETED.  NEW TRIANG MATRIX.  MAX DOF INC=  0.5436E-02
     DISP CONVERGENCE VALUE   =  0.5433E-02  CRITERION=  0.3330E-01 <<< CONVERGED
     LINE SEARCH PARAMETER =  0.9994     SCALED MAX DOF INC =  0.5433E-02
     FORCE CONVERGENCE VALUE  =  0.7584E-04  CRITERION=  0.5312E-04
    EQUIL ITER   3 COMPLETED.  NEW TRIANG MATRIX.  MAX DOF INC=  0.6350E-04
     DISP CONVERGENCE VALUE   =  0.6350E-04  CRITERION=  0.3398E-01 <<< CONVERGED
     LINE SEARCH PARAMETER =   1.000     SCALED MAX DOF INC =  0.6350E-04
     FORCE CONVERGENCE VALUE  =  0.3870E-05  CRITERION=  0.5421E-04 <<< CONVERGED
    >>> SOLUTION CONVERGED AFTER EQUILIBRIUM ITERATION   3
 *** LOAD STEP     1   SUBSTEP    29  COMPLETED.    CUM ITER =    104
 *** TIME =  0.241781E-01     TIME INC =  0.100000E-02
 *** RESPONSE FREQ =  10.60       PERIOD=  0.9435E-01  PTS/CYC =  94.    
 *** AUTO STEP TIME:  NEXT TIME INC = 0.10000E-02  UNCHANGED

     FORCE CONVERGENCE VALUE  =   5.391      CRITERION=  0.5102E-04
     DISP CONVERGENCE VALUE   =  0.5017      CRITERION=  0.3198E-01
    EQUIL ITER   1 COMPLETED.  NEW TRIANG MATRIX.  MAX DOF INC= -0.5017    
     DISP CONVERGENCE VALUE   =  0.5017      CRITERION=  0.3263E-01
     LINE SEARCH PARAMETER =   1.000     SCALED MAX DOF INC = -0.5017    
     FORCE CONVERGENCE VALUE  =  0.6468E-02  CRITERION=  0.5206E-04
    EQUIL ITER   2 COMPLETED.  NEW TRIANG MATRIX.  MAX DOF INC=  0.5023E-02
     DISP CONVERGENCE VALUE   =  0.5016E-02  CRITERION=  0.3330E-01 <<< CONVERGED
     LINE SEARCH PARAMETER =  0.9985     SCALED MAX DOF INC =  0.5016E-02
     FORCE CONVERGENCE VALUE  =  0.4043E-04  CRITERION=  0.5312E-04 <<< CONVERGED
    >>> SOLUTION CONVERGED AFTER EQUILIBRIUM ITERATION   2
 *** LOAD STEP     1   SUBSTEP    30  COMPLETED.    CUM ITER =    106
 *** TIME =  0.251781E-01     TIME INC =  0.100000E-02
 *** RESPONSE FREQ =  10.90       PERIOD=  0.9173E-01  PTS/CYC =  92.    
 *** AUTO STEP TIME:  NEXT TIME INC = 0.10000E-02  UNCHANGED

     FORCE CONVERGENCE VALUE  =   5.325      CRITERION=  0.5102E-04
     DISP CONVERGENCE VALUE   =  0.5171      CRITERION=  0.3198E-01
    EQUIL ITER   1 COMPLETED.  NEW TRIANG MATRIX.  MAX DOF INC= -0.5171    
     DISP CONVERGENCE VALUE   =  0.5171      CRITERION=  0.3263E-01
     LINE SEARCH PARAMETER =   1.000     SCALED MAX DOF INC = -0.5171    
     FORCE CONVERGENCE VALUE  =  0.6621E-02  CRITERION=  0.5206E-04
    EQUIL ITER   2 COMPLETED.  NEW TRIANG MATRIX.  MAX DOF INC= -0.4255E-02
     DISP CONVERGENCE VALUE   =  0.4249E-02  CRITERION=  0.3330E-01 <<< CONVERGED
     LINE SEARCH PARAMETER =  0.9986     SCALED MAX DOF INC = -0.4249E-02
     FORCE CONVERGENCE VALUE  =  0.3837E-04  CRITERION=  0.5312E-04 <<< CONVERGED
    >>> SOLUTION CONVERGED AFTER EQUILIBRIUM ITERATION   2
 *** LOAD STEP     1   SUBSTEP    31  COMPLETED.    CUM ITER =    108
 *** TIME =  0.261781E-01     TIME INC =  0.100000E-02
 *** RESPONSE FREQ =  11.02       PERIOD=  0.9071E-01  PTS/CYC =  91.    
 *** AUTO STEP TIME:  NEXT TIME INC = 0.10000E-02  UNCHANGED

     FORCE CONVERGENCE VALUE  =   5.256      CRITERION=  0.5102E-04
     DISP CONVERGENCE VALUE   =  0.5464      CRITERION=  0.3198E-01
    EQUIL ITER   1 COMPLETED.  NEW TRIANG MATRIX.  MAX DOF INC= -0.5464    
     DISP CONVERGENCE VALUE   =  0.5464      CRITERION=  0.3263E-01
     LINE SEARCH PARAMETER =   1.000     SCALED MAX DOF INC = -0.5464    
     FORCE CONVERGENCE VALUE  =  0.6024E-02  CRITERION=  0.5206E-04
    EQUIL ITER   2 COMPLETED.  NEW TRIANG MATRIX.  MAX DOF INC= -0.3431E-02
     DISP CONVERGENCE VALUE   =  0.3430E-02  CRITERION=  0.3330E-01 <<< CONVERGED
     LINE SEARCH PARAMETER =  0.9997     SCALED MAX DOF INC = -0.3430E-02
     FORCE CONVERGENCE VALUE  =  0.5936E-04  CRITERION=  0.5312E-04
    EQUIL ITER   3 COMPLETED.  NEW TRIANG MATRIX.  MAX DOF INC=  0.6848E-04
     DISP CONVERGENCE VALUE   =  0.6848E-04  CRITERION=  0.3398E-01 <<< CONVERGED
     LINE SEARCH PARAMETER =   1.000     SCALED MAX DOF INC =  0.6848E-04
     FORCE CONVERGENCE VALUE  =  0.3332E-05  CRITERION=  0.5421E-04 <<< CONVERGED
    >>> SOLUTION CONVERGED AFTER EQUILIBRIUM ITERATION   3
 *** LOAD STEP     1   SUBSTEP    32  COMPLETED.    CUM ITER =    111
 *** TIME =  0.271781E-01     TIME INC =  0.100000E-02
 *** RESPONSE FREQ =  10.71       PERIOD=  0.9341E-01  PTS/CYC =  93.    
 *** AUTO STEP TIME:  NEXT TIME INC = 0.10000E-02  UNCHANGED

     FORCE CONVERGENCE VALUE  =   5.187      CRITERION=  0.5102E-04
     DISP CONVERGENCE VALUE   =  0.5540      CRITERION=  0.3198E-01
    EQUIL ITER   1 COMPLETED.  NEW TRIANG MATRIX.  MAX DOF INC= -0.5540    
     DISP CONVERGENCE VALUE   =  0.5540      CRITERION=  0.3263E-01
     LINE SEARCH PARAMETER =   1.000     SCALED MAX DOF INC = -0.5540    
     FORCE CONVERGENCE VALUE  =  0.5921E-02  CRITERION=  0.5206E-04
    EQUIL ITER   2 COMPLETED.  NEW TRIANG MATRIX.  MAX DOF INC= -0.2981E-02
     DISP CONVERGENCE VALUE   =  0.2968E-02  CRITERION=  0.3330E-01 <<< CONVERGED
     LINE SEARCH PARAMETER =  0.9955     SCALED MAX DOF INC = -0.2968E-02
     FORCE CONVERGENCE VALUE  =  0.2781E-03  CRITERION=  0.5312E-04
    EQUIL ITER   3 COMPLETED.  NEW TRIANG MATRIX.  MAX DOF INC=  0.8172E-03
     DISP CONVERGENCE VALUE   =  0.8172E-03  CRITERION=  0.3398E-01 <<< CONVERGED
     LINE SEARCH PARAMETER =   1.000     SCALED MAX DOF INC =  0.8172E-03
     FORCE CONVERGENCE VALUE  =  0.3613E-05  CRITERION=  0.5421E-04 <<< CONVERGED
    >>> SOLUTION CONVERGED AFTER EQUILIBRIUM ITERATION   3
 *** LOAD STEP     1   SUBSTEP    33  COMPLETED.    CUM ITER =    114
 *** TIME =  0.281781E-01     TIME INC =  0.100000E-02
 *** RESPONSE FREQ =  10.64       PERIOD=  0.9398E-01  PTS/CYC =  94.    
 *** AUTO STEP TIME:  NEXT TIME INC = 0.10000E-02  UNCHANGED

     FORCE CONVERGENCE VALUE  =   5.122      CRITERION=  0.5102E-04
     DISP CONVERGENCE VALUE   =  0.5657      CRITERION=  0.3198E-01
    EQUIL ITER   1 COMPLETED.  NEW TRIANG MATRIX.  MAX DOF INC=  0.5657    
     DISP CONVERGENCE VALUE   =  0.5657      CRITERION=  0.3263E-01
     LINE SEARCH PARAMETER =   1.000     SCALED MAX DOF INC =  0.5657    
     FORCE CONVERGENCE VALUE  =  0.5856E-02  CRITERION=  0.5206E-04
    EQUIL ITER   2 COMPLETED.  NEW TRIANG MATRIX.  MAX DOF INC=  0.2735E-02
     DISP CONVERGENCE VALUE   =  0.2735E-02  CRITERION=  0.3330E-01 <<< CONVERGED
     LINE SEARCH PARAMETER =  0.9998     SCALED MAX DOF INC =  0.2735E-02
     FORCE CONVERGENCE VALUE  =  0.2599E-04  CRITERION=  0.5312E-04 <<< CONVERGED
    >>> SOLUTION CONVERGED AFTER EQUILIBRIUM ITERATION   2
 *** LOAD STEP     1   SUBSTEP    34  COMPLETED.    CUM ITER =    116
 *** TIME =  0.291781E-01     TIME INC =  0.100000E-02
 *** RESPONSE FREQ =  10.79       PERIOD=  0.9268E-01  PTS/CYC =  93.    
 *** AUTO STEP TIME:  NEXT TIME INC = 0.10000E-02  UNCHANGED

     FORCE CONVERGENCE VALUE  =   5.064      CRITERION=  0.5102E-04
     DISP CONVERGENCE VALUE   =  0.5670      CRITERION=  0.3198E-01
    EQUIL ITER   1 COMPLETED.  NEW TRIANG MATRIX.  MAX DOF INC= -0.5670    
     DISP CONVERGENCE VALUE   =  0.5670      CRITERION=  0.3263E-01
     LINE SEARCH PARAMETER =   1.000     SCALED MAX DOF INC = -0.5670    
     FORCE CONVERGENCE VALUE  =  0.6527E-02  CRITERION=  0.5206E-04
    EQUIL ITER   2 COMPLETED.  NEW TRIANG MATRIX.  MAX DOF INC= -0.9895E-02
     DISP CONVERGENCE VALUE   =  0.9895E-02  CRITERION=  0.3330E-01 <<< CONVERGED
     LINE SEARCH PARAMETER =   1.000     SCALED MAX DOF INC = -0.9895E-02
     FORCE CONVERGENCE VALUE  =  0.1353E-03  CRITERION=  0.5312E-04
    EQUIL ITER   3 COMPLETED.  NEW TRIANG MATRIX.  MAX DOF INC= -0.1304E-02
     DISP CONVERGENCE VALUE   =  0.1300E-02  CRITERION=  0.3398E-01 <<< CONVERGED
     LINE SEARCH PARAMETER =  0.9969     SCALED MAX DOF INC = -0.1300E-02
     FORCE CONVERGENCE VALUE  =  0.2739E-05  CRITERION=  0.5421E-04 <<< CONVERGED
    >>> SOLUTION CONVERGED AFTER EQUILIBRIUM ITERATION   3
 *** LOAD STEP     1   SUBSTEP    35  COMPLETED.    CUM ITER =    119
 *** TIME =  0.301781E-01     TIME INC =  0.100000E-02
 *** RESPONSE FREQ =  10.55       PERIOD=  0.9477E-01  PTS/CYC =  95.    
 *** AUTO STEP TIME:  NEXT TIME INC = 0.10000E-02  UNCHANGED

     FORCE CONVERGENCE VALUE  =   5.012      CRITERION=  0.5102E-04
     DISP CONVERGENCE VALUE   =  0.5731      CRITERION=  0.3198E-01
    EQUIL ITER   1 COMPLETED.  NEW TRIANG MATRIX.  MAX DOF INC= -0.5731    
     DISP CONVERGENCE VALUE   =  0.5729      CRITERION=  0.3263E-01
     LINE SEARCH PARAMETER =  0.9996     SCALED MAX DOF INC = -0.5729    
     FORCE CONVERGENCE VALUE  =  0.5453E-01  CRITERION=  0.5206E-04
    EQUIL ITER   2 COMPLETED.  NEW TRIANG MATRIX.  MAX DOF INC= -0.4184E-01
     DISP CONVERGENCE VALUE   =  0.3873E-01  CRITERION=  0.3330E-01
     LINE SEARCH PARAMETER =  0.9255     SCALED MAX DOF INC = -0.3873E-01
     FORCE CONVERGENCE VALUE  =  0.7997E-02  CRITERION=  0.5312E-04
    EQUIL ITER   3 COMPLETED.  NEW TRIANG MATRIX.  MAX DOF INC= -0.3976E-02
     DISP CONVERGENCE VALUE   =  0.3976E-02  CRITERION=  0.3398E-01 <<< CONVERGED
     LINE SEARCH PARAMETER =   1.000     SCALED MAX DOF INC = -0.3976E-02
     FORCE CONVERGENCE VALUE  =  0.3670E-03  CRITERION=  0.5421E-04
    EQUIL ITER   4 COMPLETED.  NEW TRIANG MATRIX.  MAX DOF INC= -0.1760E-03
     DISP CONVERGENCE VALUE   =  0.1760E-03  CRITERION=  0.3467E-01 <<< CONVERGED
     LINE SEARCH PARAMETER =   1.000     SCALED MAX DOF INC = -0.1760E-03
     FORCE CONVERGENCE VALUE  =  0.1862E-04  CRITERION=  0.5531E-04 <<< CONVERGED
    >>> SOLUTION CONVERGED AFTER EQUILIBRIUM ITERATION   4
 *** LOAD STEP     1   SUBSTEP    36  COMPLETED.    CUM ITER =    123
 *** TIME =  0.311781E-01     TIME INC =  0.100000E-02
 *** RESPONSE FREQ =  10.22       PERIOD=  0.9781E-01  PTS/CYC =  98.    
 *** AUTO STEP TIME:  NEXT TIME INC = 0.10000E-02  UNCHANGED

     FORCE CONVERGENCE VALUE  =   4.964      CRITERION=  0.5102E-04
     DISP CONVERGENCE VALUE   =  0.5791      CRITERION=  0.3198E-01
    EQUIL ITER   1 COMPLETED.  NEW TRIANG MATRIX.  MAX DOF INC= -0.5791    
     DISP CONVERGENCE VALUE   =  0.5791      CRITERION=  0.3263E-01
     LINE SEARCH PARAMETER =  0.9999     SCALED MAX DOF INC = -0.5791    
     FORCE CONVERGENCE VALUE  =  0.4759E-01  CRITERION=  0.5206E-04
    EQUIL ITER   2 COMPLETED.  NEW TRIANG MATRIX.  MAX DOF INC= -0.4903E-01
     DISP CONVERGENCE VALUE   =  0.4256E-01  CRITERION=  0.3330E-01
     LINE SEARCH PARAMETER =  0.8680     SCALED MAX DOF INC = -0.4256E-01
     FORCE CONVERGENCE VALUE  =  0.9641E-02  CRITERION=  0.5312E-04
    EQUIL ITER   3 COMPLETED.  NEW TRIANG MATRIX.  MAX DOF INC=  0.6910E-02
     DISP CONVERGENCE VALUE   =  0.6910E-02  CRITERION=  0.3398E-01 <<< CONVERGED
     LINE SEARCH PARAMETER =   1.000     SCALED MAX DOF INC =  0.6910E-02
     FORCE CONVERGENCE VALUE  =  0.4909E-03  CRITERION=  0.5421E-04
    EQUIL ITER   4 COMPLETED.  NEW TRIANG MATRIX.  MAX DOF INC= -0.8534E-03
     DISP CONVERGENCE VALUE   =  0.8534E-03  CRITERION=  0.3467E-01 <<< CONVERGED
     LINE SEARCH PARAMETER =   1.000     SCALED MAX DOF INC = -0.8534E-03
     FORCE CONVERGENCE VALUE  =  0.2640E-04  CRITERION=  0.5531E-04 <<< CONVERGED
    >>> SOLUTION CONVERGED AFTER EQUILIBRIUM ITERATION   4
 *** LOAD STEP     1   SUBSTEP    37  COMPLETED.    CUM ITER =    127
 *** TIME =  0.321781E-01     TIME INC =  0.100000E-02
 *** RESPONSE FREQ =  10.09       PERIOD=  0.9909E-01  PTS/CYC =  99.    
 *** AUTO STEP TIME:  NEXT TIME INC = 0.10000E-02  UNCHANGED

     FORCE CONVERGENCE VALUE  =   4.922      CRITERION=  0.5102E-04
     DISP CONVERGENCE VALUE   =  0.5887      CRITERION=  0.3198E-01
    EQUIL ITER   1 COMPLETED.  NEW TRIANG MATRIX.  MAX DOF INC= -0.5887    
     DISP CONVERGENCE VALUE   =  0.5887      CRITERION=  0.3263E-01
     LINE SEARCH PARAMETER =   1.000     SCALED MAX DOF INC = -0.5887    
     FORCE CONVERGENCE VALUE  =  0.6579E-02  CRITERION=  0.5206E-04
    EQUIL ITER   2 COMPLETED.  NEW TRIANG MATRIX.  MAX DOF INC= -0.8558E-02
     DISP CONVERGENCE VALUE   =  0.8535E-02  CRITERION=  0.3330E-01 <<< CONVERGED
     LINE SEARCH PARAMETER =  0.9973     SCALED MAX DOF INC = -0.8535E-02
     FORCE CONVERGENCE VALUE  =  0.5522E-04  CRITERION=  0.5312E-04
    EQUIL ITER   3 COMPLETED.  NEW TRIANG MATRIX.  MAX DOF INC= -0.1736E-03
     DISP CONVERGENCE VALUE   =  0.1728E-03  CRITERION=  0.3398E-01 <<< CONVERGED
     LINE SEARCH PARAMETER =  0.9954     SCALED MAX DOF INC = -0.1728E-03
     FORCE CONVERGENCE VALUE  =  0.1634E-05  CRITERION=  0.5421E-04 <<< CONVERGED
    >>> SOLUTION CONVERGED AFTER EQUILIBRIUM ITERATION   3
 *** LOAD STEP     1   SUBSTEP    38  COMPLETED.    CUM ITER =    130
 *** TIME =  0.331781E-01     TIME INC =  0.100000E-02
 *** RESPONSE FREQ =  10.25       PERIOD=  0.9755E-01  PTS/CYC =  98.    
 *** AUTO STEP TIME:  NEXT TIME INC = 0.10000E-02  UNCHANGED

     FORCE CONVERGENCE VALUE  =   4.896      CRITERION=  0.5102E-04
     DISP CONVERGENCE VALUE   =  0.6036      CRITERION=  0.3198E-01
    EQUIL ITER   1 COMPLETED.  NEW TRIANG MATRIX.  MAX DOF INC= -0.6036    
     DISP CONVERGENCE VALUE   =  0.6036      CRITERION=  0.3263E-01
     LINE SEARCH PARAMETER =   1.000     SCALED MAX DOF INC = -0.6036    
     FORCE CONVERGENCE VALUE  =  0.6038E-02  CRITERION=  0.5206E-04
    EQUIL ITER   2 COMPLETED.  NEW TRIANG MATRIX.  MAX DOF INC= -0.4804E-02
     DISP CONVERGENCE VALUE   =  0.4791E-02  CRITERION=  0.3330E-01 <<< CONVERGED
[...]
 *** LOAD STEP     1   SUBSTEP   193  COMPLETED.    CUM ITER =    505
 *** TIME =  0.188178         TIME INC =  0.100000E-02
 *** RESPONSE FREQ =  8.760       PERIOD=  0.1142      PTS/CYC = 0.11E+03
 *** AUTO STEP TIME:  NEXT TIME INC = 0.10000E-02  UNCHANGED

     FORCE CONVERGENCE VALUE  =   6.160      CRITERION=  0.5102E-04
     DISP CONVERGENCE VALUE   =  0.6132      CRITERION=  0.5115E-01
    EQUIL ITER   1 COMPLETED.  NEW TRIANG MATRIX.  MAX DOF INC= -0.6132    
     DISP CONVERGENCE VALUE   =  0.6132      CRITERION=  0.5220E-01
     LINE SEARCH PARAMETER =   1.000     SCALED MAX DOF INC = -0.6132    
     FORCE CONVERGENCE VALUE  =  0.3460E-02  CRITERION=  0.5206E-04
    EQUIL ITER   2 COMPLETED.  NEW TRIANG MATRIX.  MAX DOF INC= -0.9782E-03
     DISP CONVERGENCE VALUE   =  0.9782E-03  CRITERION=  0.5326E-01 <<< CONVERGED
     LINE SEARCH PARAMETER =   1.000     SCALED MAX DOF INC = -0.9782E-03
     FORCE CONVERGENCE VALUE  =  0.3790E-05  CRITERION=  0.5312E-04 <<< CONVERGED
    >>> SOLUTION CONVERGED AFTER EQUILIBRIUM ITERATION   2
 *** LOAD STEP     1   SUBSTEP   194  COMPLETED.    CUM ITER =    507
 *** TIME =  0.189178         TIME INC =  0.100000E-02
 *** RESPONSE FREQ =  8.841       PERIOD=  0.1131      PTS/CYC = 0.11E+03
 *** AUTO STEP TIME:  NEXT TIME INC = 0.10000E-02  UNCHANGED

     FORCE CONVERGENCE VALUE  =   6.147      CRITERION=  0.5102E-04
     DISP CONVERGENCE VALUE   =  0.6011      CRITERION=  0.5115E-01
    EQUIL ITER   1 COMPLETED.  NEW TRIANG MATRIX.  MAX DOF INC= -0.6011    
     DISP CONVERGENCE VALUE   =  0.6011      CRITERION=  0.5220E-01
     LINE SEARCH PARAMETER =   1.000     SCALED MAX DOF INC = -0.6011    
     FORCE CONVERGENCE VALUE  =  0.3659E-02  CRITERION=  0.5206E-04
    EQUIL ITER   2 COMPLETED.  NEW TRIANG MATRIX.  MAX DOF INC= -0.1161E-02
     DISP CONVERGENCE VALUE   =  0.1161E-02  CRITERION=  0.5326E-01 <<< CONVERGED
     LINE SEARCH PARAMETER =   1.000     SCALED MAX DOF INC = -0.1161E-02
     FORCE CONVERGENCE VALUE  =  0.3870E-05  CRITERION=  0.5312E-04 <<< CONVERGED
    >>> SOLUTION CONVERGED AFTER EQUILIBRIUM ITERATION   2
 *** LOAD STEP     1   SUBSTEP   195  COMPLETED.    CUM ITER =    509
 *** TIME =  0.190178         TIME INC =  0.100000E-02
 *** RESPONSE FREQ =  8.812       PERIOD=  0.1135      PTS/CYC = 0.11E+03
 *** AUTO STEP TIME:  NEXT TIME INC = 0.10000E-02  UNCHANGED

     FORCE CONVERGENCE VALUE  =   6.137      CRITERION=  0.5102E-04
     DISP CONVERGENCE VALUE   =  0.5749      CRITERION=  0.5115E-01
    EQUIL ITER   1 COMPLETED.  NEW TRIANG MATRIX.  MAX DOF INC= -0.5749    
     DISP CONVERGENCE VALUE   =  0.5749      CRITERION=  0.5220E-01
     LINE SEARCH PARAMETER =   1.000     SCALED MAX DOF INC = -0.5749    
     FORCE CONVERGENCE VALUE  =  0.3696E-02  CRITERION=  0.5206E-04
    EQUIL ITER   2 COMPLETED.  NEW TRIANG MATRIX.  MAX DOF INC= -0.9802E-03
     DISP CONVERGENCE VALUE   =  0.9802E-03  CRITERION=  0.5326E-01 <<< CONVERGED
     LINE SEARCH PARAMETER =   1.000     SCALED MAX DOF INC = -0.9802E-03
     FORCE CONVERGENCE VALUE  =  0.3628E-05  CRITERION=  0.5312E-04 <<< CONVERGED
    >>> SOLUTION CONVERGED AFTER EQUILIBRIUM ITERATION   2
 *** LOAD STEP     1   SUBSTEP   196  COMPLETED.    CUM ITER =    511
 *** TIME =  0.191178         TIME INC =  0.100000E-02
 *** RESPONSE FREQ =  8.684       PERIOD=  0.1151      PTS/CYC = 0.12E+03
 *** AUTO STEP TIME:  NEXT TIME INC = 0.10000E-02  UNCHANGED

     FORCE CONVERGENCE VALUE  =   6.127      CRITERION=  0.5102E-04
     DISP CONVERGENCE VALUE   =  0.5794      CRITERION=  0.5115E-01
    EQUIL ITER   1 COMPLETED.  NEW TRIANG MATRIX.  MAX DOF INC= -0.5794    
     DISP CONVERGENCE VALUE   =  0.5794      CRITERION=  0.5220E-01
     LINE SEARCH PARAMETER =   1.000     SCALED MAX DOF INC = -0.5794    
     FORCE CONVERGENCE VALUE  =  0.3590E-02  CRITERION=  0.5206E-04
    EQUIL ITER   2 COMPLETED.  NEW TRIANG MATRIX.  MAX DOF INC= -0.7821E-03
     DISP CONVERGENCE VALUE   =  0.7821E-03  CRITERION=  0.5326E-01 <<< CONVERGED
     LINE SEARCH PARAMETER =   1.000     SCALED MAX DOF INC = -0.7821E-03
     FORCE CONVERGENCE VALUE  =  0.3621E-05  CRITERION=  0.5312E-04 <<< CONVERGED
    >>> SOLUTION CONVERGED AFTER EQUILIBRIUM ITERATION   2
 *** LOAD STEP     1   SUBSTEP   197  COMPLETED.    CUM ITER =    513
 *** TIME =  0.192178         TIME INC =  0.100000E-02
 *** RESPONSE FREQ =  8.635       PERIOD=  0.1158      PTS/CYC = 0.12E+03
 *** AUTO STEP TIME:  NEXT TIME INC = 0.10000E-02  UNCHANGED

     FORCE CONVERGENCE VALUE  =   6.117      CRITERION=  0.5102E-04
     DISP CONVERGENCE VALUE   =  0.5853      CRITERION=  0.5115E-01
    EQUIL ITER   1 COMPLETED.  NEW TRIANG MATRIX.  MAX DOF INC= -0.5853    
     DISP CONVERGENCE VALUE   =  0.5853      CRITERION=  0.5220E-01
     LINE SEARCH PARAMETER =   1.000     SCALED MAX DOF INC = -0.5853    
     FORCE CONVERGENCE VALUE  =  0.3649E-02  CRITERION=  0.5206E-04
    EQUIL ITER   2 COMPLETED.  NEW TRIANG MATRIX.  MAX DOF INC=  0.9983E-03
     DISP CONVERGENCE VALUE   =  0.9983E-03  CRITERION=  0.5326E-01 <<< CONVERGED
     LINE SEARCH PARAMETER =   1.000     SCALED MAX DOF INC =  0.9983E-03
     FORCE CONVERGENCE VALUE  =  0.3941E-05  CRITERION=  0.5312E-04 <<< CONVERGED
    >>> SOLUTION CONVERGED AFTER EQUILIBRIUM ITERATION   2
 *** LOAD STEP     1   SUBSTEP   198  COMPLETED.    CUM ITER =    515
 *** TIME =  0.193178         TIME INC =  0.100000E-02
 *** RESPONSE FREQ =  8.810       PERIOD=  0.1135      PTS/CYC = 0.11E+03
 *** AUTO STEP TIME:  NEXT TIME INC = 0.10000E-02  UNCHANGED

     FORCE CONVERGENCE VALUE  =   6.104      CRITERION=  0.5102E-04
     DISP CONVERGENCE VALUE   =  0.6025      CRITERION=  0.5115E-01
    EQUIL ITER   1 COMPLETED.  NEW TRIANG MATRIX.  MAX DOF INC= -0.6025    
     DISP CONVERGENCE VALUE   =  0.6025      CRITERION=  0.5220E-01
     LINE SEARCH PARAMETER =   1.000     SCALED MAX DOF INC = -0.6025    
     FORCE CONVERGENCE VALUE  =  0.3934E-02  CRITERION=  0.5206E-04
    EQUIL ITER   2 COMPLETED.  NEW TRIANG MATRIX.  MAX DOF INC=  0.1223E-02
     DISP CONVERGENCE VALUE   =  0.1223E-02  CRITERION=  0.5326E-01 <<< CONVERGED
     LINE SEARCH PARAMETER =   1.000     SCALED MAX DOF INC =  0.1223E-02
     FORCE CONVERGENCE VALUE  =  0.4067E-05  CRITERION=  0.5312E-04 <<< CONVERGED
    >>> SOLUTION CONVERGED AFTER EQUILIBRIUM ITERATION   2
 *** LOAD STEP     1   SUBSTEP   199  COMPLETED.    CUM ITER =    517
 *** TIME =  0.194178         TIME INC =  0.100000E-02
 *** RESPONSE FREQ =  9.107       PERIOD=  0.1098      PTS/CYC = 0.11E+03
 *** AUTO STEP TIME:  NEXT TIME INC = 0.10000E-02  UNCHANGED

     FORCE CONVERGENCE VALUE  =   6.084      CRITERION=  0.5102E-04
     DISP CONVERGENCE VALUE   =  0.6098      CRITERION=  0.5115E-01
    EQUIL ITER   1 COMPLETED.  NEW TRIANG MATRIX.  MAX DOF INC= -0.6098    
     DISP CONVERGENCE VALUE   =  0.6098      CRITERION=  0.5220E-01
     LINE SEARCH PARAMETER =   1.000     SCALED MAX DOF INC = -0.6098    
     FORCE CONVERGENCE VALUE  =  0.4122E-02  CRITERION=  0.5206E-04
    EQUIL ITER   2 COMPLETED.  NEW TRIANG MATRIX.  MAX DOF INC=  0.1092E-02
     DISP CONVERGENCE VALUE   =  0.1092E-02  CRITERION=  0.5326E-01 <<< CONVERGED
     LINE SEARCH PARAMETER =   1.000     SCALED MAX DOF INC =  0.1092E-02
     FORCE CONVERGENCE VALUE  =  0.4079E-05  CRITERION=  0.5312E-04 <<< CONVERGED
    >>> SOLUTION CONVERGED AFTER EQUILIBRIUM ITERATION   2
 *** LOAD STEP     1   SUBSTEP   200  COMPLETED.    CUM ITER =    519
 *** TIME =  0.195178         TIME INC =  0.100000E-02
 *** RESPONSE FREQ =  9.225       PERIOD=  0.1084      PTS/CYC = 0.11E+03
 *** AUTO STEP TIME:  NEXT TIME INC = 0.10000E-02  UNCHANGED

     FORCE CONVERGENCE VALUE  =   6.054      CRITERION=  0.5102E-04
     DISP CONVERGENCE VALUE   =  0.6047      CRITERION=  0.5115E-01
    EQUIL ITER   1 COMPLETED.  NEW TRIANG MATRIX.  MAX DOF INC= -0.6047    
     DISP CONVERGENCE VALUE   =  0.6047      CRITERION=  0.5220E-01
     LINE SEARCH PARAMETER =   1.000     SCALED MAX DOF INC = -0.6047    
     FORCE CONVERGENCE VALUE  =  0.3940E-02  CRITERION=  0.5206E-04
    EQUIL ITER   2 COMPLETED.  NEW TRIANG MATRIX.  MAX DOF INC= -0.1004E-02
     DISP CONVERGENCE VALUE   =  0.1004E-02  CRITERION=  0.5326E-01 <<< CONVERGED
     LINE SEARCH PARAMETER =  0.9999     SCALED MAX DOF INC = -0.1004E-02
     FORCE CONVERGENCE VALUE  =  0.3995E-05  CRITERION=  0.5312E-04 <<< CONVERGED
    >>> SOLUTION CONVERGED AFTER EQUILIBRIUM ITERATION   2
 *** LOAD STEP     1   SUBSTEP   201  COMPLETED.    CUM ITER =    521
 *** TIME =  0.196178         TIME INC =  0.100000E-02
 *** RESPONSE FREQ =  8.985       PERIOD=  0.1113      PTS/CYC = 0.11E+03
 *** AUTO STEP TIME:  NEXT TIME INC = 0.10000E-02  UNCHANGED

     FORCE CONVERGENCE VALUE  =   6.017      CRITERION=  0.5102E-04
     DISP CONVERGENCE VALUE   =  0.5886      CRITERION=  0.5115E-01
    EQUIL ITER   1 COMPLETED.  NEW TRIANG MATRIX.  MAX DOF INC= -0.5886    
     DISP CONVERGENCE VALUE   =  0.5886      CRITERION=  0.5220E-01
     LINE SEARCH PARAMETER =   1.000     SCALED MAX DOF INC = -0.5886    
     FORCE CONVERGENCE VALUE  =  0.3539E-02  CRITERION=  0.5206E-04
    EQUIL ITER   2 COMPLETED.  NEW TRIANG MATRIX.  MAX DOF INC= -0.1127E-02
     DISP CONVERGENCE VALUE   =  0.1126E-02  CRITERION=  0.5326E-01 <<< CONVERGED
     LINE SEARCH PARAMETER =  0.9999     SCALED MAX DOF INC = -0.1126E-02
     FORCE CONVERGENCE VALUE  =  0.3805E-05  CRITERION=  0.5312E-04 <<< CONVERGED
    >>> SOLUTION CONVERGED AFTER EQUILIBRIUM ITERATION   2
 *** LOAD STEP     1   SUBSTEP   202  COMPLETED.    CUM ITER =    523
 *** TIME =  0.197178         TIME INC =  0.100000E-02
 *** RESPONSE FREQ =  8.516       PERIOD=  0.1174      PTS/CYC = 0.12E+03
 *** AUTO STEP TIME:  NEXT TIME INC = 0.10000E-02  UNCHANGED

     FORCE CONVERGENCE VALUE  =   5.977      CRITERION=  0.5102E-04
     DISP CONVERGENCE VALUE   =  0.5600      CRITERION=  0.5115E-01
    EQUIL ITER   1 COMPLETED.  NEW TRIANG MATRIX.  MAX DOF INC= -0.5600    
     DISP CONVERGENCE VALUE   =  0.5600      CRITERION=  0.5220E-01
     LINE SEARCH PARAMETER =   1.000     SCALED MAX DOF INC = -0.5600    
     FORCE CONVERGENCE VALUE  =  0.3299E-02  CRITERION=  0.5206E-04
    EQUIL ITER   2 COMPLETED.  NEW TRIANG MATRIX.  MAX DOF INC=  0.9649E-03
     DISP CONVERGENCE VALUE   =  0.9648E-03  CRITERION=  0.5326E-01 <<< CONVERGED
     LINE SEARCH PARAMETER =  0.9999     SCALED MAX DOF INC =  0.9648E-03
     FORCE CONVERGENCE VALUE  =  0.3799E-05  CRITERION=  0.5312E-04 <<< CONVERGED
    >>> SOLUTION CONVERGED AFTER EQUILIBRIUM ITERATION   2
 *** LOAD STEP     1   SUBSTEP   203  COMPLETED.    CUM ITER =    525
 *** TIME =  0.198178         TIME INC =  0.100000E-02
 *** RESPONSE FREQ =  8.052       PERIOD=  0.1242      PTS/CYC = 0.12E+03
 *** AUTO STEP TIME:  NEXT TIME INC = 0.10000E-02  UNCHANGED

     FORCE CONVERGENCE VALUE  =   5.943      CRITERION=  0.5102E-04
     DISP CONVERGENCE VALUE   =  0.5240      CRITERION=  0.5115E-01
    EQUIL ITER   1 COMPLETED.  NEW TRIANG MATRIX.  MAX DOF INC= -0.5240    
     DISP CONVERGENCE VALUE   =  0.5240      CRITERION=  0.5220E-01
     LINE SEARCH PARAMETER =   1.000     SCALED MAX DOF INC = -0.5240    
     FORCE CONVERGENCE VALUE  =  0.3278E-02  CRITERION=  0.5206E-04
    EQUIL ITER   2 COMPLETED.  NEW TRIANG MATRIX.  MAX DOF INC=  0.7337E-03
     DISP CONVERGENCE VALUE   =  0.7337E-03  CRITERION=  0.5326E-01 <<< CONVERGED
     LINE SEARCH PARAMETER =  0.9999     SCALED MAX DOF INC =  0.7337E-03
     FORCE CONVERGENCE VALUE  =  0.3776E-05  CRITERION=  0.5312E-04 <<< CONVERGED
    >>> SOLUTION CONVERGED AFTER EQUILIBRIUM ITERATION   2
 *** LOAD STEP     1   SUBSTEP   204  COMPLETED.    CUM ITER =    527
 *** TIME =  0.199178         TIME INC =  0.100000E-02
 *** RESPONSE FREQ =  7.728       PERIOD=  0.1294      PTS/CYC = 0.13E+03
 *** AUTO TIME STEP:  NEXT TIME INC = 0.82187E-03  DECREASED (FACTOR = 0.8219)

     FORCE CONVERGENCE VALUE  =   7.203      CRITERION=  0.5102E-04
     DISP CONVERGENCE VALUE   =  0.4286      CRITERION=  0.5115E-01
    EQUIL ITER   1 COMPLETED.  NEW TRIANG MATRIX.  MAX DOF INC= -0.4286    
     DISP CONVERGENCE VALUE   =  0.4286      CRITERION=  0.5220E-01
     LINE SEARCH PARAMETER =   1.000     SCALED MAX DOF INC = -0.4286    
     FORCE CONVERGENCE VALUE  =  0.2743E-02  CRITERION=  0.5206E-04
    EQUIL ITER   2 COMPLETED.  NEW TRIANG MATRIX.  MAX DOF INC= -0.4347E-03
     DISP CONVERGENCE VALUE   =  0.4347E-03  CRITERION=  0.5326E-01 <<< CONVERGED
     LINE SEARCH PARAMETER =   1.000     SCALED MAX DOF INC = -0.4347E-03
     FORCE CONVERGENCE VALUE  =  0.2149E-05  CRITERION=  0.5312E-04 <<< CONVERGED
    >>> SOLUTION CONVERGED AFTER EQUILIBRIUM ITERATION   2
 *** LOAD STEP     1   SUBSTEP   205  COMPLETED.    CUM ITER =    529
 *** TIME =  0.200000         TIME INC =  0.821875E-03
 *** RESPONSE FREQ =  7.754       PERIOD=  0.1290      PTS/CYC = 0.16E+03


 *** ANSYS BINARY FILE STATISTICS
  BUFFER SIZE USED= 16384
        1.562 MB WRITTEN ON ELEMENT SAVED DATA FILE: file0.esav
        1.000 MB WRITTEN ON ASSEMBLED MATRIX FILE: file0.full
       18.688 MB WRITTEN ON RESULTS FILE: file0.rst
 *************** Write FE CONNECTORS *********

 WRITE OUT CONSTRAINT EQUATIONS TO FILE= file.ce                                                                                                                                                                                                                                                             
 ****************************************************
 *************** FINISHED SOLVE FOR LS 1 *************

 *GET  _WALLASOL  FROM  ACTI  ITEM=TIME WALL  VALUE=  17.5600000    

 PRINTOUT RESUMED BY /GOP

 FINISH SOLUTION PROCESSING


 ***** ROUTINE COMPLETED *****  CP =        75.078



 *** ANSYS - ENGINEERING ANALYSIS SYSTEM  RELEASE 2021 R1          21.1     ***
 DISTRIBUTED ANSYS Mechanical Enterprise Academic Student      

 00000000  VERSION=WINDOWS x64   17:33:36  MAR 24, 2021 CP=     75.078

 Disk--Transient (A5)                                                          



          ***** ANSYS RESULTS INTERPRETATION (POST1) *****

 *** NOTE ***                            CP =      75.078   TIME= 17:33:36
 Reading results into the database (SET command) will update the current 
 displacement and force boundary conditions in the database with the     
 values from the results file for that load set.  Note that any          
 subsequent solutions will use these values unless action is taken to    
 either SAVE the current values or not overwrite them (/EXIT,NOSAVE).    

 Set Encoding of XML File to:ISO-8859-1

 Set Output of XML File to:
     PARM,     ,     ,     ,     ,     ,     ,     ,     ,     ,     ,     ,
         ,     ,     ,     ,     ,     ,     ,

 DATABASE WRITTEN ON FILE  parm.xml                                                                                                                                                                                                                                                            

 EXIT THE ANSYS POST1 DATABASE PROCESSOR


 ***** ROUTINE COMPLETED *****  CP =        75.094



 PRINTOUT RESUMED BY /GOP

 *GET  _WALLDONE  FROM  ACTI  ITEM=TIME WALL  VALUE=  17.5600000    

 PARAMETER _PREPTIME =     0.000000000    

 PARAMETER _SOLVTIME =     88.00000000    

 PARAMETER _POSTTIME =     0.000000000    

 PARAMETER _TOTALTIM =     88.00000000    

 *GET  _DLBRATIO  FROM  ACTI  ITEM=SOLU DLBR  VALUE=  1.13150289    

 *GET  _COMBTIME  FROM  ACTI  ITEM=SOLU COMB  VALUE= 0.464170300    
 --- Total number of nodes = 3843
 --- Total number of elements = 1533
 --- Element load balance ratio = 1.13150289
 --- Time to combine distributed files = 0.4641703

 EXIT ANSYS WITHOUT SAVING DATABASE


 NUMBER OF WARNING MESSAGES ENCOUNTERED=          4
 NUMBER OF ERROR   MESSAGES ENCOUNTERED=          0

+--------- D I S T R I B U T E D   A N S Y S   S T A T I S T I C S ------------+

Release: 2021 R1            Build: 21.1       Update: UP20201109   Platform: WINDOWS x64 
Date Run: 03/24/2021   Time: 17:33     Process ID: 20240
Operating System: Windows 10  (Build: 19041)

Processor Model: Intel(R) Core(TM) i7-7700HQ CPU @ 2.80GHz

Compiler: Intel(R) FORTRAN Compiler Version 19.0.0  (Build: 20190206)
          Intel(R) C/C++ Compiler Version 19.0.0  (Build: 20190206)
          Intel(R) Math Kernel Library Version 2020.0.0 Product Build 20191125

Number of machines requested            :    1
Total number of cores available         :    8
Number of physical cores available      :    4
Number of processes requested           :    2
Number of threads per process requested :    1
Total number of cores requested         :    2 (Distributed Memory Parallel)               
MPI Type: INTELMPI
MPI Version: Intel(R) MPI Library 2018 Update 3 for Windows* OS


GPU Acceleration: Not Requested

Job Name: file0
Input File: dummy.dat

  Core                Machine Name   Working Directory
 -----------------------------------------------------
     0             DESKTOP-BTDLNGA   C:\Users\ASUS\Documents\ANSYS\ANSYS2021\Sec12-4\_ProjectScratch\Scr2F55
     1             DESKTOP-BTDLNGA   C:\Users\ASUS\Documents\ANSYS\ANSYS2021\Sec12-4\_ProjectScratch\Scr2F55
 
Latency time from master to core     1 =    1.618 microseconds
 
Communication speed from master to core     1 =  5501.80 MB/sec

Total CPU time for main thread                    :       75.0 seconds
Total CPU time summed for all threads             :       75.2 seconds

Elapsed time spent obtaining a license            :        0.4 seconds
Elapsed time spent pre-processing model (/PREP7)  :        0.0 seconds
Elapsed time spent solution - preprocessing       :        0.0 seconds
Elapsed time spent computing solution             :       87.7 seconds
Elapsed time spent solution - postprocessing      :        0.5 seconds
Elapsed time spent post-processing model (/POST1) :        0.0 seconds
 
Equation solver used                              :            Sparse (symmetric)

Maximum total memory used                         :      269.0 MB
Maximum total memory allocated                    :     3136.0 MB
Total physical memory available                   :         16 GB

Total amount of I/O written to disk               :        3.7 GB
Total amount of I/O read from disk                :       10.6 GB

+------ E N D   D I S T R I B U T E D   A N S Y S   S T A T I S T I C S -------+


 *---------------------------------------------------------------------------*
 |                                                                           |
 |                       DISTRIBUTED ANSYS RUN COMPLETED                     |
 |                                                                           |
 |---------------------------------------------------------------------------|
 |                                                                           |
 | Ansys 2021 R1               Build 21.1         UP20201109     WINDOWS x64 |
 |                                                                           |
 |---------------------------------------------------------------------------|
 |                                                                           |
 | Database Requested(-db)  1024 MB    Scratch Memory Requested      1024 MB |
 | Maximum Database Used       3 MB    Maximum Scratch Memory Used    133 MB |
 |                                                                           |
 |---------------------------------------------------------------------------|
 |                                                                           |
 |        CP Time      (sec) =         75.188       Time  =  17:33:36        |
 |        Elapsed Time (sec) =         90.000       Date  =  03/24/2021      |
 |                                                                           |
 *---------------------------------------------------------------------------*
