
 ANSYS Mechanical Enterprise Academic Student      


 *------------------------------------------------------------------*
 |                                                                  |
 |   W E L C O M E   T O   T H E   A N S Y S (R)  P R O G R A M     |
 |                                                                  |
 *------------------------------------------------------------------*




 ***************************************************************
 *            ANSYS 2021 R1          LEGAL NOTICES             *
 ***************************************************************
 *                                                             *
 * Copyright 1971-2021 ANSYS, Inc.  All rights reserved.       *
 * Unauthorized use, distribution or duplication is            *
 * prohibited.                                                 *
 *                                                             *
 * Ansys is a registered trademark of ANSYS, Inc. or its       *
 * subsidiaries in the United States or other countries.       *
 * See the ANSYS, Inc. online documentation or the ANSYS, Inc. *
 * documentation CD or online help for the complete Legal      *
 * Notice.                                                     *
 *                                                             *
 ***************************************************************
 *                                                             *
 * THIS ANSYS SOFTWARE PRODUCT AND PROGRAM DOCUMENTATION       *
 * INCLUDE TRADE SECRETS AND CONFIDENTIAL AND PROPRIETARY      *
 * PRODUCTS OF ANSYS, INC., ITS SUBSIDIARIES, OR LICENSORS.    *
 * The software products and documentation are furnished by    *
 * ANSYS, Inc. or its subsidiaries under a software license    *
 * agreement that contains provisions concerning               *
 * non-disclosure, copying, length and nature of use,          *
 * compliance with exporting laws, warranties, disclaimers,    *
 * limitations of liability, and remedies, and other           *
 * provisions.  The software products and documentation may be *
 * used, disclosed, transferred, or copied only in accordance  *
 * with the terms and conditions of that software license      *
 * agreement.                                                  *
 *                                                             *
 * ANSYS, Inc. is a UL registered                              *
 * ISO 9001:2015 company.                                      *
 *                                                             *
 ***************************************************************
 *                                                             *
 * This product is subject to U.S. laws governing export and   *
 * re-export.                                                  *
 *                                                             *
 * For U.S. Government users, except as specifically granted   *
 * by the ANSYS, Inc. software license agreement, the use,     *
 * duplication, or disclosure by the United States Government  *
 * is subject to restrictions stated in the ANSYS, Inc.        *
 * software license agreement and FAR 12.212 (for non-DOD      *
 * licenses).                                                  *
 *                                                             *
 ***************************************************************

 2021 R1 
     
 Point Releases and Patches installed:   
     
 Academic Student 2021 R1
 Aqwa 2021 R1
 EnSight 2021 R1 
 FENSAP-ICE 2021 R1  


          *****  ANSYS COMMAND LINE ARGUMENTS  *****
  BATCH MODE REQUESTED (-b)    = NOLIST
  INPUT FILE COPY MODE (-c)    = COPY
  DISTRIBUTED MEMORY PARALLEL REQUESTED
       2 PARALLEL PROCESSES REQUESTED WITH SINGLE THREAD PER PROCESS
    TOTAL OF     2 CORES REQUESTED
  INPUT FILE NAME              = C:\Users\ASUS\Documents\ANSYS\ANSYS2021\Sec12-2\_ProjectScratch\Scr9D06\dummy.dat
  OUTPUT FILE NAME             = C:\Users\ASUS\Documents\ANSYS\ANSYS2021\Sec12-2\_ProjectScratch\Scr9D06\solve.out
  START-UP FILE MODE           = NOREAD
  STOP FILE MODE               = NOREAD

 RELEASE= 2021 R1              BUILD= 21.1      UP20201109   VERSION=WINDOWS x64 
 CURRENT JOBNAME=file0  08:19:56  MAR 24, 2021 CP=      0.203


 PARAMETER _DS_PROGRESS =     999.0000000    

 /INPUT FILE= ds.dat  LINE=       0



 *** NOTE ***                            CP =       0.281   TIME= 08:19:56
 The /CONFIG,NOELDB command is not valid in a Distributed ANSYS          
 solution.  Command is ignored.                                          

 *GET  _WALLSTRT  FROM  ACTI  ITEM=TIME WALL  VALUE=  8.33222222    

 TITLE= 
 Fork--Transient (B5)                                                          

  ACT Extensions:
      LSDYNA, 2021.1
      5f463412-bd3e-484b-87e7-cbc0a665e474, wbex
  

 SET PARAMETER DIMENSIONS ON  _WB_PROJECTSCRATCH_DIR
  TYPE=STRI  DIMENSIONS=      248        1        1

 PARAMETER _WB_PROJECTSCRATCH_DIR(1) = C:\Users\ASUS\Documents\ANSYS\ANSYS2021\Sec12-2\_ProjectScratch\Scr9D06\

 SET PARAMETER DIMENSIONS ON  _WB_SOLVERFILES_DIR
  TYPE=STRI  DIMENSIONS=      248        1        1

 PARAMETER _WB_SOLVERFILES_DIR(1) = C:\Users\ASUS\Documents\ANSYS\ANSYS2021\Sec12-2\Fork_files\dp0\SYS-1\MECH\

 SET PARAMETER DIMENSIONS ON  _WB_USERFILES_DIR
  TYPE=STRI  DIMENSIONS=      248        1        1

 PARAMETER _WB_USERFILES_DIR(1) = C:\Users\ASUS\Documents\ANSYS\ANSYS2021\Sec12-2\Fork_files\user_files\
 --- Data in consistent NMM units. See Solving Units in the help system for more

 MPA UNITS SPECIFIED FOR INTERNAL    
  LENGTH      = MILLIMETERS (mm)
  MASS        = TONNE (Mg)
  TIME        = SECONDS (sec)
  TEMPERATURE = CELSIUS (C)
  TOFFSET     = 273.0
  FORCE       = NEWTON (N)
  HEAT        = MILLIJOULES (mJ)

 INPUT  UNITS ARE ALSO SET TO MPA 

 *** ANSYS - ENGINEERING ANALYSIS SYSTEM  RELEASE 2021 R1          21.1     ***
 DISTRIBUTED ANSYS Mechanical Enterprise Academic Student      

 00000000  VERSION=WINDOWS x64   08:19:56  MAR 24, 2021 CP=      0.297

 Fork--Transient (B5)                                                          



          ***** ANSYS ANALYSIS DEFINITION (PREP7) *****
 *********** Nodes for the whole assembly ***********
 *********** Elements for Body 1 "Fork" ***********
 *********** Elements for Body 2 "Glass" ***********
 *********** Send User Defined Coordinate System(s) ***********
 *********** Set Reference Temperature ***********
 *********** Send Materials ***********
 *********** Send Sheet Properties ***********
 *********** Create Contact "Contact Region" ***********
             Real Constant Set For Above Contact Is 4 & 3
 *********** Fixed Supports ***********


 ***** ROUTINE COMPLETED *****  CP =         0.359


 --- Number of total nodes = 7015
 --- Number of contact elements = 2008
 --- Number of spring elements = 0
 --- Number of bearing elements = 0
 --- Number of solid elements = 2178
 --- Number of condensed parts = 0
 --- Number of total elements = 4186

 *GET  _WALLBSOL  FROM  ACTI  ITEM=TIME WALL  VALUE=  8.33222222    
 ****************************************************************************
 *************************    SOLUTION       ********************************
 ****************************************************************************

 *****  ANSYS SOLUTION ROUTINE  *****


 PERFORM A TRANSIENT ANALYSIS
  THIS WILL BE A NEW ANALYSIS

 STEP BOUNDARY CONDITION KEY= 1

 PARAMETER _THICKRATIO =    0.5000000000    

 USE SPARSE MATRIX DIRECT SOLVER

 CONTACT INFORMATION PRINTOUT LEVEL       1

 DO NOT COMBINE ELEMENT MATRIX FILES (.emat) AFTER DISTRIBUTED PARALLEL SOLUTION

 DO NOT COMBINE ELEMENT SAVE DATA FILES (.esav) AFTER DISTRIBUTED PARALLEL SOLUTION

 PERFORM A FULL TRANSIENT ANALYSIS
  USING HHT ALGORITHM

 STIFFNESS MATRIX DAMPING MULTIPLIER= 0.10000E-02

 USE SETTINGS FOR MODERATE SPEED DYNAMIC APPLICATIONS
 SECOND ORDER TRANSIENT PARAMETERS
   GAMMA= 0.1000      (ALPHA= 0.3025      DELTA= 0.6000      ALPHAF= 0.1000      ALPHAM=  0.000    )

 USE FIRST ORDER TRANSIENT PARAMETER THETA=  1.000    

 NLDIAG: Nonlinear diagnostics CONT option is set to ON. 
         Writing frequency : each ITERATION.

 DEFINE RESTART CONTROL FOR LOADSTEP LAST
 AT FREQUENCY OF LAST AND NUMBER FOR OVERWRITE IS   -1

 DELETE RESTART FILES OF ENDSTEP
 ****************************************************
 ******************* SOLVE FOR LS 1 OF 1 ****************
 *********** Create Acceleration ***********

 SET PARAMETER DIMENSIONS ON  _ACELX TYPE=TABL  DIMENSIONS=     6     1     1
  TIME                        

 PARAMETER _ACELX(1,0,1) =     0.000000000    

 PARAMETER _ACELX(2,0,1) =    0.1500000000    

 PARAMETER _ACELX(3,0,1) =    0.3000000000    

 PARAMETER _ACELX(4,0,1) =    0.4500000000    

 PARAMETER _ACELX(5,0,1) =    0.6000000000    

 PARAMETER _ACELX(6,0,1) =     1.500000000    

 PARAMETER _ACELX(1,1,1) =     0.000000000    

 PARAMETER _ACELX(2,1,1) =     0.000000000    

 PARAMETER _ACELX(3,1,1) =     0.000000000    

 PARAMETER _ACELX(4,1,1) =     0.000000000    

 PARAMETER _ACELX(5,1,1) =     0.000000000    

 PARAMETER _ACELX(6,1,1) =     0.000000000    

 SET PARAMETER DIMENSIONS ON  _ACELY TYPE=TABL  DIMENSIONS=     6     1     1
  TIME                        

 PARAMETER _ACELY(1,0,1) =     0.000000000    

 PARAMETER _ACELY(2,0,1) =    0.1500000000    

 PARAMETER _ACELY(3,0,1) =    0.3000000000    

 PARAMETER _ACELY(4,0,1) =    0.4500000000    

 PARAMETER _ACELY(5,0,1) =    0.6000000000    

 PARAMETER _ACELY(6,0,1) =     1.500000000    

 PARAMETER _ACELY(1,1,1) =     0.000000000    

 PARAMETER _ACELY(2,1,1) =     10000.00000    

 PARAMETER _ACELY(3,1,1) =     0.000000000    

 PARAMETER _ACELY(4,1,1) =    -10000.00000    

 PARAMETER _ACELY(5,1,1) =     0.000000000    

 PARAMETER _ACELY(6,1,1) =     0.000000000    

 SET PARAMETER DIMENSIONS ON  _ACELZ TYPE=TABL  DIMENSIONS=     6     1     1
  TIME                        

 PARAMETER _ACELZ(1,0,1) =     0.000000000    

 PARAMETER _ACELZ(2,0,1) =    0.1500000000    

 PARAMETER _ACELZ(3,0,1) =    0.3000000000    

 PARAMETER _ACELZ(4,0,1) =    0.4500000000    

 PARAMETER _ACELZ(5,0,1) =    0.6000000000    

 PARAMETER _ACELZ(6,0,1) =     1.500000000    

 PARAMETER _ACELZ(1,1,1) =     0.000000000    

 PARAMETER _ACELZ(2,1,1) =     0.000000000    

 PARAMETER _ACELZ(3,1,1) =     0.000000000    

 PARAMETER _ACELZ(4,1,1) =     0.000000000    

 PARAMETER _ACELZ(5,1,1) =     0.000000000    

 PARAMETER _ACELZ(6,1,1) =     0.000000000    
 
 ACELX IS SET ACCORDING TO TABLE PARAMETER = _ACELX  
 ACELY IS SET ACCORDING TO TABLE PARAMETER = _ACELY  
 ACELZ IS SET ACCORDING TO TABLE PARAMETER = _ACELZ  

 PRINTOUT RESUMED BY /GOP

 USE AUTOMATIC TIME STEPPING THIS LOAD STEP

 USE INITIAL TIME STEP SIZE OF 0.5000000E-02 FOR ALL  DEGREES OF FREEDOM
 FOR AUTOMATIC TIME STEPPING:
   USE 0.1000000E-02 AS THE MINIMUM TIME STEP SIZE
   USE 0.2000000E-01 AS THE MAXIMUM TIME STEP SIZE

 TIME=  1.5000    

 INCLUDE TRANSIENT EFFECTS FOR  ALL DEGREES OF FREEDOM THIS LOAD STEP

 ERASE THE CURRENT DATABASE OUTPUT CONTROL TABLE.


 WRITE ALL  ITEMS TO THE DATABASE WITH A FREQUENCY OF NONE
   FOR ALL APPLICABLE ENTITIES

 WRITE NSOL ITEMS TO THE DATABASE WITH A FREQUENCY OF   -100
   FOR ALL APPLICABLE ENTITIES

 WRITE RSOL ITEMS TO THE DATABASE WITH A FREQUENCY OF   -100
   FOR ALL APPLICABLE ENTITIES

 WRITE EANG ITEMS TO THE DATABASE WITH A FREQUENCY OF   -100
   FOR ALL APPLICABLE ENTITIES

 WRITE ETMP ITEMS TO THE DATABASE WITH A FREQUENCY OF   -100
   FOR ALL APPLICABLE ENTITIES

 WRITE VENG ITEMS TO THE DATABASE WITH A FREQUENCY OF   -100
   FOR ALL APPLICABLE ENTITIES

 WRITE STRS ITEMS TO THE DATABASE WITH A FREQUENCY OF   -100
   FOR ALL APPLICABLE ENTITIES

 WRITE CONT ITEMS TO THE DATABASE WITH A FREQUENCY OF   -100
   FOR ALL APPLICABLE ENTITIES

 WRITE V    ITEMS TO THE DATABASE WITH A FREQUENCY OF   -100
   FOR ALL APPLICABLE ENTITIES

 WRITE A    ITEMS TO THE DATABASE WITH A FREQUENCY OF   -100
   FOR ALL APPLICABLE ENTITIES

 *GET  ANSINTER_  FROM  ACTI  ITEM=INT        VALUE=  0.00000000    

 *IF  ANSINTER_                         ( =   0.00000     )  NE  
      0                                 ( =   0.00000     )  THEN    

 *ENDIF

 *** NOTE ***                            CP =       0.406   TIME= 08:19:56
 The automatic domain decomposition logic has selected the MESH domain   
 decomposition method with 2 processes per solution.                     

 *****  ANSYS SOLVE    COMMAND  *****

 *** WARNING ***                         CP =       0.406   TIME= 08:19:56
 Element shape checking is currently inactive.  Issue SHPP,ON or         
 SHPP,WARN to reactivate, if desired.                                    

 *** NOTE ***                            CP =       0.438   TIME= 08:19:56
 The model data was checked and warning messages were found.             
  Please review output or errors file (                                  
 C:\Users\ASUS\Documents\ANSYS\ANSYS2021\Sec12-2\_ProjectScratch\Scr9D06 
 6\file0.err ) for these warning messages.                               

 *** SELECTION OF ELEMENT TECHNOLOGIES FOR APPLICABLE ELEMENTS ***
      --- GIVE SUGGESTIONS AND RESET THE KEY OPTIONS ---

 ELEMENT TYPE         1 IS SOLID186. KEYOPT(2)=0 IS SUGGESTED AND HAS BEEN RESET.
  KEYOPT(1-12)=    0    0    0    0    0    0    0    0    0    0    0    0

 ELEMENT TYPE         2 IS SHELL181. IT IS ASSOCIATED WITH ELASTOPLASTIC 
 MATERIALS ONLY. KEYOPT(8)=2 IS SUGGESTED AND KEYOPT(3)=2 IS SUGGESTED FOR
 HIGHER ACCURACY OF MEMBRANE STRESSES; OTHERWISE, KEYOPT(3)=0 IS SUGGESTED. 
 KEYOPT(8) HAS BEEN RESET BUT KEYOPT(3) CAN NOT BE RESET HERE. PLEASE RESET 
 IT MANUALLY IF NECESSARY.
  KEYOPT(1-12)=    0    0    2    0    0    0    0    2    0    0    0    0



 *** ANSYS - ENGINEERING ANALYSIS SYSTEM  RELEASE 2021 R1          21.1     ***
 DISTRIBUTED ANSYS Mechanical Enterprise Academic Student      

 00000000  VERSION=WINDOWS x64   08:19:56  MAR 24, 2021 CP=      0.438

 Fork--Transient (B5)                                                          



                       S O L U T I O N   O P T I O N S

   PROBLEM DIMENSIONALITY. . . . . . . . . . . . .3-D                  
   DEGREES OF FREEDOM. . . . . . UX   UY   UZ   ROTX ROTY ROTZ
   ANALYSIS TYPE . . . . . . . . . . . . . . . . .TRANSIENT            
      SOLUTION METHOD. . . . . . . . . . . . . . .FULL                 
   OFFSET TEMPERATURE FROM ABSOLUTE ZERO . . . . .  273.15    
   EQUATION SOLVER OPTION. . . . . . . . . . . . .SPARSE             
   GLOBALLY ASSEMBLED MATRIX . . . . . . . . . . .SYMMETRIC  

 *** NOTE ***                            CP =       0.438   TIME= 08:19:56
 The conditions for direct assembly have been met.  No .emat or .erot    
 files will be produced.                                                 

 *** NOTE ***                            CP =       0.594   TIME= 08:19:56
 Symmetric Deformable- deformable contact pair identified by real        
 constant set 3 and contact element type 3 has been set up.  The         
 companion pair has real constant set ID 4.  Both pairs should have the  
 same behavior.                                                          
 ANSYS will keep the current pair and deactivate its companion pair,     
 resulting in asymmetric contact.                                        
 Linear contact is defined
 Contact algorithm: Augmented Lagrange method
 Contact detection at: Gauss integration point
 Contact stiffness factor FKN                  10.000    
 The resulting initial contact stiffness       78442.    
 Default penetration tolerance factor FTOLN   0.10000    
 The resulting penetration tolerance           2.1737    
 Default opening contact stiffness OPSF will be used.
 Default tangent stiffness factor FKT          1.0000    
 Use constant contact stiffness
 Default Max. friction stress TAUMAX          0.10000E+21
 Average contact surface length                53.902    
 Average contact pair depth                    21.737    
 User defined pinball region PINB              9.1007    
 Initial penetration/gap is excluded.
 Bonded contact (always) is defined.

 *** NOTE ***                            CP =       0.594   TIME= 08:19:56
 Max.  Initial penetration 2.490954248E-15 was detected between contact  
 element 4635 and target element 5334.                                   
 ****************************************
  

 *** NOTE ***                            CP =       0.594   TIME= 08:19:56
 Symmetric Deformable- deformable contact pair identified by real        
 constant set 4 and contact element type 3 has been set up.  The         
 companion pair has real constant set ID 3.  Both pairs should have the  
 same behavior.                                                          
 ANSYS will deactivate the current pair and keep its companion pair,     
 resulting in asymmetric contact.                                        
 Linear contact is defined
 Contact algorithm: Augmented Lagrange method
 Contact detection at: Gauss integration point
 Contact stiffness factor FKN                  10.000    
 The resulting initial contact stiffness       78442.    
 Default penetration tolerance factor FTOLN   0.10000    
 The resulting penetration tolerance           1.7847    
 Default opening contact stiffness OPSF will be used.
 Default tangent stiffness factor FKT          1.0000    
 Use constant contact stiffness
 Default Max. friction stress TAUMAX          0.10000E+21
 Average contact surface length                59.492    
 Average contact pair depth                    17.847    
 User defined pinball region PINB              9.1007    
 Initial penetration/gap is excluded.
 Bonded contact (always) is defined.

 *** NOTE ***                            CP =       0.594   TIME= 08:19:56
 Max.  Initial penetration 2.274158797E-15 was detected between contact  
 element 4801 and target element 4104.                                   
 ****************************************
  
  
  

  
  
     D I S T R I B U T E D   D O M A I N   D E C O M P O S E R
  
  ...Number of elements: 4186
  ...Number of nodes:    7015
  ...Decompose to 2 CPU domains
  ...Element load balance ratio =     1.327


                      L O A D   S T E P   O P T I O N S

   LOAD STEP NUMBER. . . . . . . . . . . . . . . .     1
   TIME AT END OF THE LOAD STEP. . . . . . . . . .  1.5000    
   AUTOMATIC TIME STEPPING . . . . . . . . . . . .    ON
      STARTING TIME STEP SIZE. . . . . . . . . . . 0.50000E-02
      MINIMUM TIME STEP SIZE . . . . . . . . . . . 0.10000E-02
      MAXIMUM TIME STEP SIZE . . . . . . . . . . . 0.20000E-01
   STEP CHANGE BOUNDARY CONDITIONS . . . . . . . .   YES
   TRANSIENT (INERTIA) EFFECTS
      STRUCTURAL DOFS. . . . . . . . . . . . . . .    ON
   TRANSIENT INTEGRATION PARAMETERS
      GAMMA. . . . . . . . . . . . . . . . . . . . 0.10000    
      ALPHA. . . . . . . . . . . . . . . . . . . . 0.30250    
      DELTA. . . . . . . . . . . . . . . . . . . . 0.60000    
      USING HHT TIME INTEGRATION
      ALPHAF . . . . . . . . . . . . . . . . . . . 0.10000    
      ALPHAM . . . . . . . . . . . . . . . . . . .  0.0000    
   RAYLEIGH DAMPING MULTIPLIERS
      ALPHA (MASS) . . . . . . . . . . . . . . . .  0.0000    
      BETA (STIFFNESS) . . . . . . . . . . . . . . 0.10000E-02
   INERTIA LOADS                        X           Y           Z 
      ACEL . . . . . . . . . . . ._ACELX      _ACELY      _ACELZ      
   PRINT OUTPUT CONTROLS . . . . . . . . . . . . .NO PRINTOUT
   DATABASE OUTPUT CONTROLS
      ITEM     FREQUENCY   COMPONENT
       ALL       NONE               
      NSOL       -100               
      RSOL       -100               
      EANG       -100               
      ETMP       -100               
      VENG       -100               
      STRS       -100               
      CONT       -100               
      V          -100               
      A          -100               


 SOLUTION MONITORING INFO IS WRITTEN TO FILE= file.mntr                                                                                                                                                                                                                                                           



                         ***********  PRECISE MASS SUMMARY  ***********

   TOTAL RIGID BODY MASS MATRIX ABOUT ORIGIN
               Translational mass               |   Coupled translational/rotational mass
        0.33912        0.0000        0.0000     |     0.0000        267.60        4.9954    
         0.0000       0.33912        0.0000     |    -267.60        0.0000      -0.14477E-05
         0.0000        0.0000       0.33912     |    -4.9954       0.14477E-05    0.0000    
     ------------------------------------------ | ------------------------------------------
                                                |         Rotational mass (inertia)
                                                |    0.38156E+06  -0.29938E-04   0.20614E-02
                                                |   -0.29938E-04   0.47349E+06    2708.3    
                                                |    0.20614E-02    2708.3        92148.    

   TOTAL MASS = 0.33912    
     The mass principal axes coincide with the global Cartesian axes

   CENTER OF MASS (X,Y,Z)=  -0.42689E-05   -14.730        789.10    

   TOTAL INERTIA ABOUT CENTER OF MASS
        0.17033E+06  -0.86137E-05   0.91904E-03
       -0.86137E-05   0.26232E+06   -1233.6    
        0.91904E-03   -1233.6        92074.    

   PRINCIPAL INERTIAS =   0.17033E+06   0.26233E+06    92065.    
   ORIENTATION VECTORS OF THE INERTIA PRINCIPAL AXES IN GLOBAL CARTESIAN
     ( 1.000, 0.000, 0.000) (-0.000, 1.000,-0.007) (-0.000, 0.007, 1.000) 


  *** MASS SUMMARY BY ELEMENT TYPE ***

  TYPE      MASS
     1  0.326089    
     2  0.130350E-01

 Range of element maximum matrix coefficients in global coordinates
 Maximum = 79858061.6 at element 4376.                                   
 Minimum = 6901352.6 at element 698.                                     

   *** ELEMENT MATRIX FORMULATION TIMES
     TYPE    NUMBER   ENAME      TOTAL CP  AVE CP

        1       624  SOLID186      0.047   0.000075
        2      1554  SHELL181      0.188   0.000121
        3      1004  CONTA174      0.062   0.000062
        4      1004  TARGE170      0.000   0.000000
 Time at end of element matrix formulation CP = 1.296875.                

 ALL CURRENT ANSYS DATA WRITTEN TO FILE NAME= file.rdb
  FOR POSSIBLE RESUME FROM THIS POINT

 DISTRIBUTED SPARSE MATRIX DIRECT SOLVER.
  Number of equations =       25488,    Maximum wavefront =    228

  Local memory allocated for solver              =     66.115 MB
  Local memory required for in-core solution     =     63.909 MB
  Local memory required for out-of-core solution =     45.754 MB

  Total memory allocated for solver              =    109.173 MB
  Total memory required for in-core solution     =    105.106 MB
  Total memory required for out-of-core solution =     65.599 MB

 *** NOTE ***                            CP =       1.484   TIME= 08:19:57
 The Distributed Sparse Matrix Solver is currently running in the        
 in-core memory mode.  This memory mode uses the most amount of memory   
 in order to avoid using the hard drive as much as possible, which most  
 often results in the fastest solution time.  This mode is recommended   
 if enough physical memory is present to accommodate all of the solver   
 data.                                                                   
 curEqn=  13389  totEqn=  13389 Job CP sec=      1.641
      Factor Done= 100% Factor Wall sec=      0.072 rate=   14944.7 Mflops
 Distributed sparse solver maximum pivot= 71460798.8 at node 243 UY.     
 Distributed sparse solver minimum pivot= 5.86159785 at node 1524 UY.    
 Distributed sparse solver minimum pivot in absolute value= 5.86159785   
 at node 1524 UY.                                                        

   *** ELEMENT RESULT CALCULATION TIMES
     TYPE    NUMBER   ENAME      TOTAL CP  AVE CP

        1       624  SOLID186      0.094   0.000150
        2      1554  SHELL181      0.156   0.000101
        3      1004  CONTA174      0.047   0.000047

   *** NODAL LOAD CALCULATION TIMES
     TYPE    NUMBER   ENAME      TOTAL CP  AVE CP

        1       624  SOLID186      0.000   0.000000
        2      1554  SHELL181      0.016   0.000010
        3      1004  CONTA174      0.016   0.000016
 *** LOAD STEP     1   SUBSTEP     1  COMPLETED.    CUM ITER =      1
 *** TIME =  0.500000E-02     TIME INC =  0.500000E-02  NEW TRIANG MATRIX
 *** RESPONSE FREQ =  19.89       PERIOD=  0.5029E-01  PTS/CYC =  10.    
 *** AUTO TIME STEP:  NEXT TIME INC = 0.38683E-02  DECREASED (FACTOR = 0.7737)

 *** LOAD STEP     1   SUBSTEP     2  COMPLETED.    CUM ITER =      2
 *** TIME =  0.886828E-02     TIME INC =  0.386828E-02  NEW TRIANG MATRIX
 *** RESPONSE FREQ =  16.70       PERIOD=  0.5987E-01  PTS/CYC =  15.    
 *** AUTO STEP TIME:  NEXT TIME INC = 0.38683E-02  UNCHANGED

 *** LOAD STEP     1   SUBSTEP     3  COMPLETED.    CUM ITER =      3
 *** TIME =  0.127366E-01     TIME INC =  0.386828E-02  OLD TRIANG MATRIX
 *** RESPONSE FREQ =  13.66       PERIOD=  0.7318E-01  PTS/CYC =  19.    
 *** AUTO TIME STEP:  NEXT TIME INC = 0.56295E-02  INCREASED (FACTOR = 1.4553)

 *** LOAD STEP     1   SUBSTEP     4  COMPLETED.    CUM ITER =      4
 *** TIME =  0.183660E-01     TIME INC =  0.562947E-02  NEW TRIANG MATRIX
 *** RESPONSE FREQ =  10.86       PERIOD=  0.9212E-01  PTS/CYC =  16.    
 *** AUTO TIME STEP:  NEXT TIME INC = 0.70862E-02  INCREASED (FACTOR = 1.2588)

 *** LOAD STEP     1   SUBSTEP     5  COMPLETED.    CUM ITER =      5
 *** TIME =  0.254522E-01     TIME INC =  0.708619E-02  NEW TRIANG MATRIX
 *** RESPONSE FREQ =  9.070       PERIOD=  0.1103      PTS/CYC =  16.    
 *** AUTO TIME STEP:  NEXT TIME INC = 0.84811E-02  INCREASED (FACTOR = 1.1968)

 *** LOAD STEP     1   SUBSTEP     6  COMPLETED.    CUM ITER =      6
 *** TIME =  0.339333E-01     TIME INC =  0.848107E-02  NEW TRIANG MATRIX
 *** RESPONSE FREQ =  8.452       PERIOD=  0.1183      PTS/CYC =  14.    
 *** AUTO TIME STEP:  NEXT TIME INC = 0.91011E-02  INCREASED (FACTOR = 1.0731)

 *** LOAD STEP     1   SUBSTEP     7  COMPLETED.    CUM ITER =      7
 *** TIME =  0.430344E-01     TIME INC =  0.910108E-02  NEW TRIANG MATRIX
 *** RESPONSE FREQ =  8.315       PERIOD=  0.1203      PTS/CYC =  13.    
 *** AUTO TIME STEP:  NEXT TIME INC = 0.92509E-02  INCREASED (FACTOR = 1.0165)

 *** LOAD STEP     1   SUBSTEP     8  COMPLETED.    CUM ITER =      8
 *** TIME =  0.522853E-01     TIME INC =  0.925089E-02  NEW TRIANG MATRIX
 *** RESPONSE FREQ =  8.273       PERIOD=  0.1209      PTS/CYC =  13.    
 *** AUTO TIME STEP:  NEXT TIME INC = 0.92985E-02  INCREASED (FACTOR = 1.0051)

 *** LOAD STEP     1   SUBSTEP     9  COMPLETED.    CUM ITER =      9
 *** TIME =  0.615838E-01     TIME INC =  0.929850E-02  NEW TRIANG MATRIX
 *** RESPONSE FREQ =  8.128       PERIOD=  0.1230      PTS/CYC =  13.    
 *** AUTO TIME STEP:  NEXT TIME INC = 0.94645E-02  INCREASED (FACTOR = 1.0178)

 *** LOAD STEP     1   SUBSTEP    10  COMPLETED.    CUM ITER =     10
 *** TIME =  0.710482E-01     TIME INC =  0.946448E-02  NEW TRIANG MATRIX
 *** RESPONSE FREQ =  7.918       PERIOD=  0.1263      PTS/CYC =  13.    
 *** AUTO TIME STEP:  NEXT TIME INC = 0.97154E-02  INCREASED (FACTOR = 1.0265)

 *** LOAD STEP     1   SUBSTEP    11  COMPLETED.    CUM ITER =     11
 *** TIME =  0.807636E-01     TIME INC =  0.971535E-02  NEW TRIANG MATRIX
 *** RESPONSE FREQ =  7.765       PERIOD=  0.1288      PTS/CYC =  13.    
 *** AUTO TIME STEP:  NEXT TIME INC = 0.99058E-02  INCREASED (FACTOR = 1.0196)

 *** LOAD STEP     1   SUBSTEP    12  COMPLETED.    CUM ITER =     12
 *** TIME =  0.906694E-01     TIME INC =  0.990585E-02  NEW TRIANG MATRIX
 *** RESPONSE FREQ =  7.688       PERIOD=  0.1301      PTS/CYC =  13.    
 *** AUTO TIME STEP:  NEXT TIME INC = 0.10006E-01  INCREASED (FACTOR = 1.0101)

 *** LOAD STEP     1   SUBSTEP    13  COMPLETED.    CUM ITER =     13
 *** TIME =  0.100675         TIME INC =  0.100057E-01  NEW TRIANG MATRIX
 *** RESPONSE FREQ =  7.596       PERIOD=  0.1317      PTS/CYC =  13.    
 *** AUTO TIME STEP:  NEXT TIME INC = 0.10127E-01  INCREASED (FACTOR = 1.0121)

 *** LOAD STEP     1   SUBSTEP    14  COMPLETED.    CUM ITER =     14
 *** TIME =  0.110802         TIME INC =  0.101272E-01  NEW TRIANG MATRIX
 *** RESPONSE FREQ =  7.634       PERIOD=  0.1310      PTS/CYC =  13.    
 *** AUTO TIME STEP:  NEXT TIME INC = 0.10077E-01  DECREASED (FACTOR = 0.9950)

 *** LOAD STEP     1   SUBSTEP    15  COMPLETED.    CUM ITER =     15
 *** TIME =  0.120879         TIME INC =  0.100769E-01  NEW TRIANG MATRIX
 *** RESPONSE FREQ =  8.783       PERIOD=  0.1139      PTS/CYC =  11.    
 *** AUTO TIME STEP:  NEXT TIME INC = 0.87580E-02  DECREASED (FACTOR = 0.8691)

 *** LOAD STEP     1   SUBSTEP    16  COMPLETED.    CUM ITER =     16
 *** TIME =  0.129637         TIME INC =  0.875797E-02  NEW TRIANG MATRIX
 *** RESPONSE FREQ =  9.979       PERIOD=  0.1002      PTS/CYC =  11.    
 *** AUTO TIME STEP:  NEXT TIME INC = 0.77088E-02  DECREASED (FACTOR = 0.8802)

 *** LOAD STEP     1   SUBSTEP    17  COMPLETED.    CUM ITER =     17
 *** TIME =  0.137346         TIME INC =  0.770880E-02  NEW TRIANG MATRIX
 *** RESPONSE FREQ =  9.693       PERIOD=  0.1032      PTS/CYC =  13.    
 *** AUTO STEP TIME:  NEXT TIME INC = 0.77088E-02  UNCHANGED

 *** LOAD STEP     1   SUBSTEP    18  COMPLETED.    CUM ITER =     18
 *** TIME =  0.145055         TIME INC =  0.770880E-02  OLD TRIANG MATRIX
 *** RESPONSE FREQ =  9.182       PERIOD=  0.1089      PTS/CYC =  14.    
 *** AUTO TIME STEP:  NEXT TIME INC = 0.83775E-02  INCREASED (FACTOR = 1.0867)

 *** LOAD STEP     1   SUBSTEP    19  COMPLETED.    CUM ITER =     19
 *** TIME =  0.153432         TIME INC =  0.837751E-02  NEW TRIANG MATRIX
 *** RESPONSE FREQ =  8.721       PERIOD=  0.1147      PTS/CYC =  14.    
 *** AUTO TIME STEP:  NEXT TIME INC = 0.88203E-02  INCREASED (FACTOR = 1.0529)

 *** LOAD STEP     1   SUBSTEP    20  COMPLETED.    CUM ITER =     20
 *** TIME =  0.162253         TIME INC =  0.882035E-02  NEW TRIANG MATRIX
 *** RESPONSE FREQ =  8.318       PERIOD=  0.1202      PTS/CYC =  14.    
 *** AUTO TIME STEP:  NEXT TIME INC = 0.92475E-02  INCREASED (FACTOR = 1.0484)

 *** LOAD STEP     1   SUBSTEP    21  COMPLETED.    CUM ITER =     21
 *** TIME =  0.171500         TIME INC =  0.924751E-02  NEW TRIANG MATRIX
 *** RESPONSE FREQ =  8.756       PERIOD=  0.1142      PTS/CYC =  12.    
 *** AUTO TIME STEP:  NEXT TIME INC = 0.87847E-02  DECREASED (FACTOR = 0.9500)

 *** LOAD STEP     1   SUBSTEP    22  COMPLETED.    CUM ITER =     22
 *** TIME =  0.180285         TIME INC =  0.878470E-02  NEW TRIANG MATRIX
 *** RESPONSE FREQ =  11.00       PERIOD=  0.9094E-01  PTS/CYC =  10.    
 *** AUTO TIME STEP:  NEXT TIME INC = 0.69952E-02  DECREASED (FACTOR = 0.7963)

 *** LOAD STEP     1   SUBSTEP    23  COMPLETED.    CUM ITER =     23
 *** TIME =  0.187280         TIME INC =  0.699522E-02  NEW TRIANG MATRIX
 *** RESPONSE FREQ =  9.150       PERIOD=  0.1093      PTS/CYC =  16.    
 *** AUTO STEP TIME:  NEXT TIME INC = 0.69952E-02  UNCHANGED

 *** LOAD STEP     1   SUBSTEP    24  COMPLETED.    CUM ITER =     24
 *** TIME =  0.194275         TIME INC =  0.699522E-02  OLD TRIANG MATRIX
 *** RESPONSE FREQ =  8.683       PERIOD=  0.1152      PTS/CYC =  16.    
 *** AUTO TIME STEP:  NEXT TIME INC = 0.88595E-02  INCREASED (FACTOR = 1.2665)

 *** LOAD STEP     1   SUBSTEP    25  COMPLETED.    CUM ITER =     25
 *** TIME =  0.203135         TIME INC =  0.885954E-02  NEW TRIANG MATRIX
 *** RESPONSE FREQ =  8.486       PERIOD=  0.1178      PTS/CYC =  13.    
 *** AUTO TIME STEP:  NEXT TIME INC = 0.90645E-02  INCREASED (FACTOR = 1.0231)

 *** LOAD STEP     1   SUBSTEP    26  COMPLETED.    CUM ITER =     26
 *** TIME =  0.212199         TIME INC =  0.906447E-02  NEW TRIANG MATRIX
 *** RESPONSE FREQ =  8.324       PERIOD=  0.1201      PTS/CYC =  13.    
 *** AUTO TIME STEP:  NEXT TIME INC = 0.92413E-02  INCREASED (FACTOR = 1.0195)

 *** LOAD STEP     1   SUBSTEP    27  COMPLETED.    CUM ITER =     27
 *** TIME =  0.221441         TIME INC =  0.924129E-02  NEW TRIANG MATRIX
 *** RESPONSE FREQ =  8.148       PERIOD=  0.1227      PTS/CYC =  13.    
 *** AUTO TIME STEP:  NEXT TIME INC = 0.94411E-02  INCREASED (FACTOR = 1.0216)

 *** LOAD STEP     1   SUBSTEP    28  COMPLETED.    CUM ITER =     28
 *** TIME =  0.230882         TIME INC =  0.944106E-02  NEW TRIANG MATRIX
 *** RESPONSE FREQ =  8.048       PERIOD=  0.1243      PTS/CYC =  13.    
 *** AUTO TIME STEP:  NEXT TIME INC = 0.95578E-02  INCREASED (FACTOR = 1.0124)

 *** LOAD STEP     1   SUBSTEP    29  COMPLETED.    CUM ITER =     29
 *** TIME =  0.240440         TIME INC =  0.955784E-02  NEW TRIANG MATRIX
 *** RESPONSE FREQ =  8.060       PERIOD=  0.1241      PTS/CYC =  13.    
 *** AUTO TIME STEP:  NEXT TIME INC = 0.95439E-02  DECREASED (FACTOR = 0.9985)

 *** LOAD STEP     1   SUBSTEP    30  COMPLETED.    CUM ITER =     30
 *** TIME =  0.249983         TIME INC =  0.954390E-02  NEW TRIANG MATRIX
 *** RESPONSE FREQ =  8.059       PERIOD=  0.1241      PTS/CYC =  13.    
 *** AUTO STEP TIME:  NEXT TIME INC = 0.95439E-02  UNCHANGED

 *** LOAD STEP     1   SUBSTEP    31  COMPLETED.    CUM ITER =     31
 *** TIME =  0.259527         TIME INC =  0.954390E-02  OLD TRIANG MATRIX
 *** RESPONSE FREQ =  8.002       PERIOD=  0.1250      PTS/CYC =  13.    
 *** AUTO TIME STEP:  NEXT TIME INC = 0.96124E-02  INCREASED (FACTOR = 1.0072)

 *** LOAD STEP     1   SUBSTEP    32  COMPLETED.    CUM ITER =     32
 *** TIME =  0.269140         TIME INC =  0.961244E-02  NEW TRIANG MATRIX
 *** RESPONSE FREQ =  8.570       PERIOD=  0.1167      PTS/CYC =  12.    
 *** AUTO TIME STEP:  NEXT TIME INC = 0.89756E-02  DECREASED (FACTOR = 0.9337)

 *** LOAD STEP     1   SUBSTEP    33  COMPLETED.    CUM ITER =     33
 *** TIME =  0.278115         TIME INC =  0.897559E-02  NEW TRIANG MATRIX
 *** RESPONSE FREQ =  9.487       PERIOD=  0.1054      PTS/CYC =  12.    
 *** AUTO TIME STEP:  NEXT TIME INC = 0.81081E-02  DECREASED (FACTOR = 0.9033)

 *** LOAD STEP     1   SUBSTEP    34  COMPLETED.    CUM ITER =     34
 *** TIME =  0.286223         TIME INC =  0.810807E-02  NEW TRIANG MATRIX
 *** RESPONSE FREQ =  10.48       PERIOD=  0.9543E-01  PTS/CYC =  12.    
 *** AUTO TIME STEP:  NEXT TIME INC = 0.73404E-02  DECREASED (FACTOR = 0.9053)

 *** LOAD STEP     1   SUBSTEP    35  COMPLETED.    CUM ITER =     35
 *** TIME =  0.293564         TIME INC =  0.734041E-02  NEW TRIANG MATRIX
 *** RESPONSE FREQ =  10.49       PERIOD=  0.9529E-01  PTS/CYC =  13.    
 *** AUTO TIME STEP:  NEXT TIME INC = 0.73302E-02  DECREASED (FACTOR = 0.9986)

 *** LOAD STEP     1   SUBSTEP    36  COMPLETED.    CUM ITER =     36
 *** TIME =  0.300894         TIME INC =  0.733021E-02  NEW TRIANG MATRIX
 *** RESPONSE FREQ =  9.572       PERIOD=  0.1045      PTS/CYC =  14.    
 *** AUTO STEP TIME:  NEXT TIME INC = 0.73302E-02  UNCHANGED

 *** LOAD STEP     1   SUBSTEP    37  COMPLETED.    CUM ITER =     37
 *** TIME =  0.308224         TIME INC =  0.733021E-02  OLD TRIANG MATRIX
 *** RESPONSE FREQ =  8.911       PERIOD=  0.1122      PTS/CYC =  15.    
 *** AUTO TIME STEP:  NEXT TIME INC = 0.86320E-02  INCREASED (FACTOR = 1.1776)

 *** LOAD STEP     1   SUBSTEP    38  COMPLETED.    CUM ITER =     38
 *** TIME =  0.316856         TIME INC =  0.863202E-02  NEW TRIANG MATRIX
 *** RESPONSE FREQ =  8.622       PERIOD=  0.1160      PTS/CYC =  13.    
 *** AUTO TIME STEP:  NEXT TIME INC = 0.89220E-02  INCREASED (FACTOR = 1.0336)

 *** LOAD STEP     1   SUBSTEP    39  COMPLETED.    CUM ITER =     39
 *** TIME =  0.325778         TIME INC =  0.892202E-02  NEW TRIANG MATRIX
 *** RESPONSE FREQ =  8.508       PERIOD=  0.1175      PTS/CYC =  13.    
 *** AUTO TIME STEP:  NEXT TIME INC = 0.90415E-02  INCREASED (FACTOR = 1.0134)

 *** LOAD STEP     1   SUBSTEP    40  COMPLETED.    CUM ITER =     40
 *** TIME =  0.334820         TIME INC =  0.904146E-02  NEW TRIANG MATRIX
 *** RESPONSE FREQ =  8.447       PERIOD=  0.1184      PTS/CYC =  13.    
 *** AUTO TIME STEP:  NEXT TIME INC = 0.91063E-02  INCREASED (FACTOR = 1.0072)

 *** LOAD STEP     1   SUBSTEP    41  COMPLETED.    CUM ITER =     41
 *** TIME =  0.343926         TIME INC =  0.910626E-02  NEW TRIANG MATRIX
 *** RESPONSE FREQ =  8.372       PERIOD=  0.1194      PTS/CYC =  13.    
 *** AUTO TIME STEP:  NEXT TIME INC = 0.91884E-02  INCREASED (FACTOR = 1.0090)

 *** LOAD STEP     1   SUBSTEP    42  COMPLETED.    CUM ITER =     42
 *** TIME =  0.353114         TIME INC =  0.918840E-02  NEW TRIANG MATRIX
 *** RESPONSE FREQ =  8.200       PERIOD=  0.1219      PTS/CYC =  13.    
 *** AUTO TIME STEP:  NEXT TIME INC = 0.93805E-02  INCREASED (FACTOR = 1.0209)

 *** LOAD STEP     1   SUBSTEP    43  COMPLETED.    CUM ITER =     43
 *** TIME =  0.362495         TIME INC =  0.938052E-02  NEW TRIANG MATRIX
 *** RESPONSE FREQ =  7.911       PERIOD=  0.1264      PTS/CYC =  13.    
 *** AUTO TIME STEP:  NEXT TIME INC = 0.97233E-02  INCREASED (FACTOR = 1.0365)

 *** LOAD STEP     1   SUBSTEP    44  COMPLETED.    CUM ITER =     44
 *** TIME =  0.372218         TIME INC =  0.972332E-02  NEW TRIANG MATRIX
 *** RESPONSE FREQ =  8.018       PERIOD=  0.1247      PTS/CYC =  13.    
 *** AUTO TIME STEP:  NEXT TIME INC = 0.95943E-02  DECREASED (FACTOR = 0.9867)

 *** LOAD STEP     1   SUBSTEP    45  COMPLETED.    CUM ITER =     45
 *** TIME =  0.381813         TIME INC =  0.959433E-02  NEW TRIANG MATRIX
 *** RESPONSE FREQ =  8.459       PERIOD=  0.1182      PTS/CYC =  12.    
 *** AUTO TIME STEP:  NEXT TIME INC = 0.90940E-02  DECREASED (FACTOR = 0.9479)

 *** LOAD STEP     1   SUBSTEP    46  COMPLETED.    CUM ITER =     46
 *** TIME =  0.390907         TIME INC =  0.909403E-02  NEW TRIANG MATRIX
 *** RESPONSE FREQ =  8.748       PERIOD=  0.1143      PTS/CYC =  13.    
 *** AUTO TIME STEP:  NEXT TIME INC = 0.87936E-02  DECREASED (FACTOR = 0.9670)

 *** LOAD STEP     1   SUBSTEP    47  COMPLETED.    CUM ITER =     47
 *** TIME =  0.399700         TIME INC =  0.879358E-02  NEW TRIANG MATRIX
 *** RESPONSE FREQ =  8.937       PERIOD=  0.1119      PTS/CYC =  13.    
 *** AUTO TIME STEP:  NEXT TIME INC = 0.86077E-02  DECREASED (FACTOR = 0.9789)

 *** LOAD STEP     1   SUBSTEP    48  COMPLETED.    CUM ITER =     48
 *** TIME =  0.408308         TIME INC =  0.860774E-02  NEW TRIANG MATRIX
 *** RESPONSE FREQ =  9.016       PERIOD=  0.1109      PTS/CYC =  13.    
 *** AUTO TIME STEP:  NEXT TIME INC = 0.85318E-02  DECREASED (FACTOR = 0.9912)

 *** LOAD STEP     1   SUBSTEP    49  COMPLETED.    CUM ITER =     49
 *** TIME =  0.416840         TIME INC =  0.853178E-02  NEW TRIANG MATRIX
 *** RESPONSE FREQ =  8.877       PERIOD=  0.1127      PTS/CYC =  13.    
 *** AUTO STEP TIME:  NEXT TIME INC = 0.85318E-02  UNCHANGED

 *** LOAD STEP     1   SUBSTEP    50  COMPLETED.    CUM ITER =     50
 *** TIME =  0.425371         TIME INC =  0.853178E-02  OLD TRIANG MATRIX
 *** RESPONSE FREQ =  8.704       PERIOD=  0.1149      PTS/CYC =  13.    
 *** AUTO TIME STEP:  NEXT TIME INC = 0.88379E-02  INCREASED (FACTOR = 1.0359)

 *** LOAD STEP     1   SUBSTEP    51  COMPLETED.    CUM ITER =     51
 *** TIME =  0.434209         TIME INC =  0.883788E-02  NEW TRIANG MATRIX
 *** RESPONSE FREQ =  8.594       PERIOD=  0.1164      PTS/CYC =  13.    
 *** AUTO TIME STEP:  NEXT TIME INC = 0.89504E-02  INCREASED (FACTOR = 1.0127)

 *** LOAD STEP     1   SUBSTEP    52  COMPLETED.    CUM ITER =     52
 *** TIME =  0.443160         TIME INC =  0.895038E-02  NEW TRIANG MATRIX
 *** RESPONSE FREQ =  8.531       PERIOD=  0.1172      PTS/CYC =  13.    
 *** AUTO TIME STEP:  NEXT TIME INC = 0.90172E-02  INCREASED (FACTOR = 1.0075)

 *** LOAD STEP     1   SUBSTEP    53  COMPLETED.    CUM ITER =     53
 *** TIME =  0.452177         TIME INC =  0.901715E-02  NEW TRIANG MATRIX
 *** RESPONSE FREQ =  8.485       PERIOD=  0.1179      PTS/CYC =  13.    
 *** AUTO TIME STEP:  NEXT TIME INC = 0.90661E-02  INCREASED (FACTOR = 1.0054)

 *** LOAD STEP     1   SUBSTEP    54  COMPLETED.    CUM ITER =     54
 *** TIME =  0.461243         TIME INC =  0.906610E-02  NEW TRIANG MATRIX
 *** RESPONSE FREQ =  8.442       PERIOD=  0.1185      PTS/CYC =  13.    
 *** AUTO TIME STEP:  NEXT TIME INC = 0.91116E-02  INCREASED (FACTOR = 1.0050)

 *** LOAD STEP     1   SUBSTEP    55  COMPLETED.    CUM ITER =     55
 *** TIME =  0.470355         TIME INC =  0.911157E-02  NEW TRIANG MATRIX
 *** RESPONSE FREQ =  9.534       PERIOD=  0.1049      PTS/CYC =  12.    
 *** AUTO TIME STEP:  NEXT TIME INC = 0.80687E-02  DECREASED (FACTOR = 0.8855)

 *** LOAD STEP     1   SUBSTEP    56  COMPLETED.    CUM ITER =     56
 *** TIME =  0.478423         TIME INC =  0.806865E-02  NEW TRIANG MATRIX
 *** RESPONSE FREQ =  9.370       PERIOD=  0.1067      PTS/CYC =  13.    
 *** AUTO STEP TIME:  NEXT TIME INC = 0.80687E-02  UNCHANGED

 *** LOAD STEP     1   SUBSTEP    57  COMPLETED.    CUM ITER =     57
 *** TIME =  0.486492         TIME INC =  0.806865E-02  OLD TRIANG MATRIX
 *** RESPONSE FREQ =  8.427       PERIOD=  0.1187      PTS/CYC =  15.    
 *** AUTO TIME STEP:  NEXT TIME INC = 0.91286E-02  INCREASED (FACTOR = 1.1314)

 *** LOAD STEP     1   SUBSTEP    58  COMPLETED.    CUM ITER =     58
 *** TIME =  0.495620         TIME INC =  0.912857E-02  NEW TRIANG MATRIX
 *** RESPONSE FREQ =  8.308       PERIOD=  0.1204      PTS/CYC =  13.    
 *** AUTO TIME STEP:  NEXT TIME INC = 0.92591E-02  INCREASED (FACTOR = 1.0143)

 *** LOAD STEP     1   SUBSTEP    59  COMPLETED.    CUM ITER =     59
 *** TIME =  0.504880         TIME INC =  0.925909E-02  NEW TRIANG MATRIX
 *** RESPONSE FREQ =  8.312       PERIOD=  0.1203      PTS/CYC =  13.    
 *** AUTO TIME STEP:  NEXT TIME INC = 0.92539E-02  DECREASED (FACTOR = 0.9994)

 *** LOAD STEP     1   SUBSTEP    60  COMPLETED.    CUM ITER =     60
 *** TIME =  0.514133         TIME INC =  0.925390E-02  NEW TRIANG MATRIX
 *** RESPONSE FREQ =  8.280       PERIOD=  0.1208      PTS/CYC =  13.    
 *** AUTO STEP TIME:  NEXT TIME INC = 0.92539E-02  UNCHANGED

 *** LOAD STEP     1   SUBSTEP    61  COMPLETED.    CUM ITER =     61
 *** TIME =  0.523387         TIME INC =  0.925390E-02  OLD TRIANG MATRIX
 *** RESPONSE FREQ =  8.137       PERIOD=  0.1229      PTS/CYC =  13.    
 *** AUTO TIME STEP:  NEXT TIME INC = 0.94531E-02  INCREASED (FACTOR = 1.0215)

 *** LOAD STEP     1   SUBSTEP    62  COMPLETED.    CUM ITER =     62
 *** TIME =  0.532840         TIME INC =  0.945315E-02  NEW TRIANG MATRIX
 *** RESPONSE FREQ =  7.869       PERIOD=  0.1271      PTS/CYC =  13.    
 *** AUTO TIME STEP:  NEXT TIME INC = 0.97756E-02  INCREASED (FACTOR = 1.0341)

 *** LOAD STEP     1   SUBSTEP    63  COMPLETED.    CUM ITER =     63
 *** TIME =  0.542616         TIME INC =  0.977559E-02  NEW TRIANG MATRIX
 *** RESPONSE FREQ =  7.481       PERIOD=  0.1337      PTS/CYC =  14.    
 *** AUTO TIME STEP:  NEXT TIME INC = 0.10282E-01  INCREASED (FACTOR = 1.0518)

 *** LOAD STEP     1   SUBSTEP    64  COMPLETED.    CUM ITER =     64
 *** TIME =  0.552898         TIME INC =  0.102822E-01  NEW TRIANG MATRIX
 *** RESPONSE FREQ =  8.006       PERIOD=  0.1249      PTS/CYC =  12.    
 *** AUTO TIME STEP:  NEXT TIME INC = 0.96077E-02  DECREASED (FACTOR = 0.9344)

 *** LOAD STEP     1   SUBSTEP    65  COMPLETED.    CUM ITER =     65
 *** TIME =  0.562506         TIME INC =  0.960771E-02  NEW TRIANG MATRIX
 *** RESPONSE FREQ =  8.310       PERIOD=  0.1203      PTS/CYC =  13.    
 *** AUTO TIME STEP:  NEXT TIME INC = 0.92570E-02  DECREASED (FACTOR = 0.9635)

 *** LOAD STEP     1   SUBSTEP    66  COMPLETED.    CUM ITER =     66
 *** TIME =  0.571763         TIME INC =  0.925704E-02  NEW TRIANG MATRIX
 *** RESPONSE FREQ =  8.540       PERIOD=  0.1171      PTS/CYC =  13.    
 *** AUTO TIME STEP:  NEXT TIME INC = 0.90071E-02  DECREASED (FACTOR = 0.9730)

 *** LOAD STEP     1   SUBSTEP    67  COMPLETED.    CUM ITER =     67
 *** TIME =  0.580770         TIME INC =  0.900713E-02  NEW TRIANG MATRIX
 *** RESPONSE FREQ =  9.233       PERIOD=  0.1083      PTS/CYC =  12.    
 *** AUTO TIME STEP:  NEXT TIME INC = 0.83309E-02  DECREASED (FACTOR = 0.9249)

 *** LOAD STEP     1   SUBSTEP    68  COMPLETED.    CUM ITER =     68
 *** TIME =  0.589101         TIME INC =  0.833094E-02  NEW TRIANG MATRIX
 *** RESPONSE FREQ =  10.06       PERIOD=  0.9938E-01  PTS/CYC =  12.    
 *** AUTO TIME STEP:  NEXT TIME INC = 0.76447E-02  DECREASED (FACTOR = 0.9176)

 *** LOAD STEP     1   SUBSTEP    69  COMPLETED.    CUM ITER =     69
 *** TIME =  0.596746         TIME INC =  0.764474E-02  NEW TRIANG MATRIX
 *** RESPONSE FREQ =  9.047       PERIOD=  0.1105      PTS/CYC =  14.    
 *** AUTO STEP TIME:  NEXT TIME INC = 0.76447E-02  UNCHANGED

 *** LOAD STEP     1   SUBSTEP    70  COMPLETED.    CUM ITER =     70
 *** TIME =  0.604391         TIME INC =  0.764474E-02  OLD TRIANG MATRIX
 *** RESPONSE FREQ =  8.568       PERIOD=  0.1167      PTS/CYC =  15.    
 *** AUTO TIME STEP:  NEXT TIME INC = 0.89783E-02  INCREASED (FACTOR = 1.1744)

 *** LOAD STEP     1   SUBSTEP    71  COMPLETED.    CUM ITER =     71
 *** TIME =  0.613369         TIME INC =  0.897833E-02  NEW TRIANG MATRIX
 *** RESPONSE FREQ =  8.371       PERIOD=  0.1195      PTS/CYC =  13.    
 *** AUTO TIME STEP:  NEXT TIME INC = 0.91891E-02  INCREASED (FACTOR = 1.0235)

 *** LOAD STEP     1   SUBSTEP    72  COMPLETED.    CUM ITER =     72
 *** TIME =  0.622558         TIME INC =  0.918912E-02  NEW TRIANG MATRIX
 *** RESPONSE FREQ =  8.348       PERIOD=  0.1198      PTS/CYC =  13.    
 *** AUTO TIME STEP:  NEXT TIME INC = 0.92142E-02  INCREASED (FACTOR = 1.0027)

 *** LOAD STEP     1   SUBSTEP    73  COMPLETED.    CUM ITER =     73
 *** TIME =  0.631772         TIME INC =  0.921417E-02  NEW TRIANG MATRIX
 *** RESPONSE FREQ =  8.544       PERIOD=  0.1170      PTS/CYC =  13.    
 *** AUTO TIME STEP:  NEXT TIME INC = 0.90034E-02  DECREASED (FACTOR = 0.9771)

 *** LOAD STEP     1   SUBSTEP    74  COMPLETED.    CUM ITER =     74
 *** TIME =  0.640776         TIME INC =  0.900339E-02  NEW TRIANG MATRIX
 *** RESPONSE FREQ =  9.331       PERIOD=  0.1072      PTS/CYC =  12.    
 *** AUTO TIME STEP:  NEXT TIME INC = 0.82434E-02  DECREASED (FACTOR = 0.9156)

 *** LOAD STEP     1   SUBSTEP    75  COMPLETED.    CUM ITER =     75
 *** TIME =  0.649019         TIME INC =  0.824345E-02  NEW TRIANG MATRIX
 *** RESPONSE FREQ =  9.795       PERIOD=  0.1021      PTS/CYC =  12.    
 *** AUTO TIME STEP:  NEXT TIME INC = 0.78534E-02  DECREASED (FACTOR = 0.9527)

 *** LOAD STEP     1   SUBSTEP    76  COMPLETED.    CUM ITER =     76
 *** TIME =  0.656872         TIME INC =  0.785340E-02  NEW TRIANG MATRIX
 *** RESPONSE FREQ =  8.687       PERIOD=  0.1151      PTS/CYC =  15.    
 *** AUTO STEP TIME:  NEXT TIME INC = 0.78534E-02  UNCHANGED

 *** LOAD STEP     1   SUBSTEP    77  COMPLETED.    CUM ITER =     77
 *** TIME =  0.664726         TIME INC =  0.785340E-02  OLD TRIANG MATRIX
 *** RESPONSE FREQ =  8.384       PERIOD=  0.1193      PTS/CYC =  15.    
 *** AUTO TIME STEP:  NEXT TIME INC = 0.91749E-02  INCREASED (FACTOR = 1.1683)

 *** LOAD STEP     1   SUBSTEP    78  COMPLETED.    CUM ITER =     78
 *** TIME =  0.673901         TIME INC =  0.917490E-02  NEW TRIANG MATRIX
 *** RESPONSE FREQ =  8.375       PERIOD=  0.1194      PTS/CYC =  13.    
 *** AUTO TIME STEP:  NEXT TIME INC = 0.91853E-02  INCREASED (FACTOR = 1.0011)

 *** LOAD STEP     1   SUBSTEP    79  COMPLETED.    CUM ITER =     79
 *** TIME =  0.683086         TIME INC =  0.918533E-02  NEW TRIANG MATRIX
 *** RESPONSE FREQ =  8.557       PERIOD=  0.1169      PTS/CYC =  13.    
 *** AUTO TIME STEP:  NEXT TIME INC = 0.89891E-02  DECREASED (FACTOR = 0.9786)

 *** LOAD STEP     1   SUBSTEP    80  COMPLETED.    CUM ITER =     80
 *** TIME =  0.692075         TIME INC =  0.898906E-02  NEW TRIANG MATRIX
 *** RESPONSE FREQ =  8.978       PERIOD=  0.1114      PTS/CYC =  12.    
 *** AUTO TIME STEP:  NEXT TIME INC = 0.85683E-02  DECREASED (FACTOR = 0.9532)

 *** LOAD STEP     1   SUBSTEP    81  COMPLETED.    CUM ITER =     81
 *** TIME =  0.700643         TIME INC =  0.856832E-02  NEW TRIANG MATRIX
 *** RESPONSE FREQ =  9.803       PERIOD=  0.1020      PTS/CYC =  12.    
 *** AUTO TIME STEP:  NEXT TIME INC = 0.78465E-02  DECREASED (FACTOR = 0.9158)

 *** LOAD STEP     1   SUBSTEP    82  COMPLETED.    CUM ITER =     82
 *** TIME =  0.708490         TIME INC =  0.784650E-02  NEW TRIANG MATRIX
 *** RESPONSE FREQ =  9.222       PERIOD=  0.1084      PTS/CYC =  14.    
 *** AUTO STEP TIME:  NEXT TIME INC = 0.78465E-02  UNCHANGED

 *** LOAD STEP     1   SUBSTEP    83  COMPLETED.    CUM ITER =     83
 *** TIME =  0.716336         TIME INC =  0.784650E-02  OLD TRIANG MATRIX
 *** RESPONSE FREQ =  8.441       PERIOD=  0.1185      PTS/CYC =  15.    
 *** AUTO TIME STEP:  NEXT TIME INC = 0.91135E-02  INCREASED (FACTOR = 1.1615)

 *** LOAD STEP     1   SUBSTEP    84  COMPLETED.    CUM ITER =     84
 *** TIME =  0.725450         TIME INC =  0.911352E-02  NEW TRIANG MATRIX
 *** RESPONSE FREQ =  8.430       PERIOD=  0.1186      PTS/CYC =  13.    
 *** AUTO TIME STEP:  NEXT TIME INC = 0.91250E-02  INCREASED (FACTOR = 1.0013)

 *** LOAD STEP     1   SUBSTEP    85  COMPLETED.    CUM ITER =     85
 *** TIME =  0.734575         TIME INC =  0.912496E-02  NEW TRIANG MATRIX
 *** RESPONSE FREQ =  8.589       PERIOD=  0.1164      PTS/CYC =  13.    
 *** AUTO TIME STEP:  NEXT TIME INC = 0.89559E-02  DECREASED (FACTOR = 0.9815)

 *** LOAD STEP     1   SUBSTEP    86  COMPLETED.    CUM ITER =     86
 *** TIME =  0.743531         TIME INC =  0.895595E-02  NEW TRIANG MATRIX
 *** RESPONSE FREQ =  8.815       PERIOD=  0.1134      PTS/CYC =  13.    
 *** AUTO TIME STEP:  NEXT TIME INC = 0.87267E-02  DECREASED (FACTOR = 0.9744)

 *** LOAD STEP     1   SUBSTEP    87  COMPLETED.    CUM ITER =     87
 *** TIME =  0.752258         TIME INC =  0.872666E-02  NEW TRIANG MATRIX
 *** RESPONSE FREQ =  9.170       PERIOD=  0.1090      PTS/CYC =  12.    
 *** AUTO TIME STEP:  NEXT TIME INC = 0.83885E-02  DECREASED (FACTOR = 0.9612)

 *** LOAD STEP     1   SUBSTEP    88  COMPLETED.    CUM ITER =     88
 *** TIME =  0.760646         TIME INC =  0.838846E-02  NEW TRIANG MATRIX
 *** RESPONSE FREQ =  9.679       PERIOD=  0.1033      PTS/CYC =  12.    
 *** AUTO TIME STEP:  NEXT TIME INC = 0.79475E-02  DECREASED (FACTOR = 0.9474)

 *** LOAD STEP     1   SUBSTEP    89  COMPLETED.    CUM ITER =     89
 *** TIME =  0.768594         TIME INC =  0.794752E-02  NEW TRIANG MATRIX
 *** RESPONSE FREQ =  8.699       PERIOD=  0.1150      PTS/CYC =  14.    
 *** AUTO STEP TIME:  NEXT TIME INC = 0.79475E-02  UNCHANGED

 *** LOAD STEP     1   SUBSTEP    90  COMPLETED.    CUM ITER =     90
 *** TIME =  0.776541         TIME INC =  0.794752E-02  OLD TRIANG MATRIX
 *** RESPONSE FREQ =  8.552       PERIOD=  0.1169      PTS/CYC =  15.    
 *** AUTO TIME STEP:  NEXT TIME INC = 0.89945E-02  INCREASED (FACTOR = 1.1317)

 *** LOAD STEP     1   SUBSTEP    91  COMPLETED.    CUM ITER =     91
 *** TIME =  0.785536         TIME INC =  0.899455E-02  NEW TRIANG MATRIX
 *** RESPONSE FREQ =  8.623       PERIOD=  0.1160      PTS/CYC =  13.    
 *** AUTO TIME STEP:  NEXT TIME INC = 0.89203E-02  DECREASED (FACTOR = 0.9917)

 *** LOAD STEP     1   SUBSTEP    92  COMPLETED.    CUM ITER =     92
 *** TIME =  0.794456         TIME INC =  0.892026E-02  NEW TRIANG MATRIX
 *** RESPONSE FREQ =  8.709       PERIOD=  0.1148      PTS/CYC =  13.    
 *** AUTO TIME STEP:  NEXT TIME INC = 0.88324E-02  DECREASED (FACTOR = 0.9901)

 *** LOAD STEP     1   SUBSTEP    93  COMPLETED.    CUM ITER =     93
 *** TIME =  0.803288         TIME INC =  0.883239E-02  NEW TRIANG MATRIX
 *** RESPONSE FREQ =  8.816       PERIOD=  0.1134      PTS/CYC =  13.    
 *** AUTO TIME STEP:  NEXT TIME INC = 0.87254E-02  DECREASED (FACTOR = 0.9879)

 *** LOAD STEP     1   SUBSTEP    94  COMPLETED.    CUM ITER =     94
 *** TIME =  0.812014         TIME INC =  0.872542E-02  NEW TRIANG MATRIX
 *** RESPONSE FREQ =  9.080       PERIOD=  0.1101      PTS/CYC =  13.    
 *** AUTO TIME STEP:  NEXT TIME INC = 0.84716E-02  DECREASED (FACTOR = 0.9709)

 *** LOAD STEP     1   SUBSTEP    95  COMPLETED.    CUM ITER =     95
 *** TIME =  0.820485         TIME INC =  0.847160E-02  NEW TRIANG MATRIX
 *** RESPONSE FREQ =  9.621       PERIOD=  0.1039      PTS/CYC =  12.    
 *** AUTO TIME STEP:  NEXT TIME INC = 0.79957E-02  DECREASED (FACTOR = 0.9438)

 *** LOAD STEP     1   SUBSTEP    96  COMPLETED.    CUM ITER =     96
 *** TIME =  0.828481         TIME INC =  0.799570E-02  NEW TRIANG MATRIX
 *** RESPONSE FREQ =  8.871       PERIOD=  0.1127      PTS/CYC =  14.    
 *** AUTO STEP TIME:  NEXT TIME INC = 0.79957E-02  UNCHANGED

 *** LOAD STEP     1   SUBSTEP    97  COMPLETED.    CUM ITER =     97
 *** TIME =  0.836477         TIME INC =  0.799570E-02  OLD TRIANG MATRIX
 *** RESPONSE FREQ =  8.688       PERIOD=  0.1151      PTS/CYC =  14.    
 *** AUTO TIME STEP:  NEXT TIME INC = 0.88536E-02  INCREASED (FACTOR = 1.1073)

 *** LOAD STEP     1   SUBSTEP    98  COMPLETED.    CUM ITER =     98
 *** TIME =  0.845330         TIME INC =  0.885364E-02  NEW TRIANG MATRIX
 *** RESPONSE FREQ =  8.641       PERIOD=  0.1157      PTS/CYC =  13.    
 *** AUTO TIME STEP:  NEXT TIME INC = 0.89023E-02  INCREASED (FACTOR = 1.0055)

 *** LOAD STEP     1   SUBSTEP    99  COMPLETED.    CUM ITER =     99
 *** TIME =  0.854233         TIME INC =  0.890235E-02  NEW TRIANG MATRIX
 *** RESPONSE FREQ =  8.646       PERIOD=  0.1157      PTS/CYC =  13.    
 *** AUTO TIME STEP:  NEXT TIME INC = 0.88973E-02  DECREASED (FACTOR = 0.9994)

 *** LOAD STEP     1   SUBSTEP   100  COMPLETED.    CUM ITER =    100
 *** TIME =  0.863130         TIME INC =  0.889732E-02  NEW TRIANG MATRIX
 *** RESPONSE FREQ =  8.749       PERIOD=  0.1143      PTS/CYC =  13.    
 *** AUTO TIME STEP:  NEXT TIME INC = 0.87919E-02  DECREASED (FACTOR = 0.9881)

 *** LOAD STEP     1   SUBSTEP   101  COMPLETED.    CUM ITER =    101
 *** TIME =  0.871922         TIME INC =  0.879186E-02  NEW TRIANG MATRIX
 *** RESPONSE FREQ =  9.316       PERIOD=  0.1073      PTS/CYC =  12.    
 *** AUTO TIME STEP:  NEXT TIME INC = 0.82569E-02  DECREASED (FACTOR = 0.9392)

 *** LOAD STEP     1   SUBSTEP   102  COMPLETED.    CUM ITER =    102
 *** TIME =  0.880179         TIME INC =  0.825689E-02  NEW TRIANG MATRIX
 *** RESPONSE FREQ =  9.780       PERIOD=  0.1023      PTS/CYC =  12.    
 *** AUTO TIME STEP:  NEXT TIME INC = 0.78656E-02  DECREASED (FACTOR = 0.9526)

 *** LOAD STEP     1   SUBSTEP   103  COMPLETED.    CUM ITER =    103
 *** TIME =  0.888044         TIME INC =  0.786562E-02  NEW TRIANG MATRIX
 *** RESPONSE FREQ =  8.811       PERIOD=  0.1135      PTS/CYC =  14.    
 *** AUTO STEP TIME:  NEXT TIME INC = 0.78656E-02  UNCHANGED

 *** LOAD STEP     1   SUBSTEP   104  COMPLETED.    CUM ITER =    104
 *** TIME =  0.895910         TIME INC =  0.786562E-02  OLD TRIANG MATRIX
 *** RESPONSE FREQ =  8.589       PERIOD=  0.1164      PTS/CYC =  15.    
 *** AUTO TIME STEP:  NEXT TIME INC = 0.89560E-02  INCREASED (FACTOR = 1.1386)

 *** LOAD STEP     1   SUBSTEP   105  COMPLETED.    CUM ITER =    105
 *** TIME =  0.904866         TIME INC =  0.895596E-02  NEW TRIANG MATRIX
 *** RESPONSE FREQ =  8.552       PERIOD=  0.1169      PTS/CYC =  13.    
 *** AUTO TIME STEP:  NEXT TIME INC = 0.89951E-02  INCREASED (FACTOR = 1.0044)

 *** LOAD STEP     1   SUBSTEP   106  COMPLETED.    CUM ITER =    106
 *** TIME =  0.913861         TIME INC =  0.899508E-02  NEW TRIANG MATRIX
 *** RESPONSE FREQ =  8.615       PERIOD=  0.1161      PTS/CYC =  13.    
 *** AUTO TIME STEP:  NEXT TIME INC = 0.89294E-02  DECREASED (FACTOR = 0.9927)

 *** LOAD STEP     1   SUBSTEP   107  COMPLETED.    CUM ITER =    107
 *** TIME =  0.922790         TIME INC =  0.892941E-02  NEW TRIANG MATRIX
 *** RESPONSE FREQ =  8.846       PERIOD=  0.1130      PTS/CYC =  13.    
 *** AUTO TIME STEP:  NEXT TIME INC = 0.86961E-02  DECREASED (FACTOR = 0.9739)

 *** LOAD STEP     1   SUBSTEP   108  COMPLETED.    CUM ITER =    108
 *** TIME =  0.931486         TIME INC =  0.869611E-02  NEW TRIANG MATRIX
 *** RESPONSE FREQ =  9.759       PERIOD=  0.1025      PTS/CYC =  12.    
 *** AUTO TIME STEP:  NEXT TIME INC = 0.78819E-02  DECREASED (FACTOR = 0.9064)

 *** LOAD STEP     1   SUBSTEP   109  COMPLETED.    CUM ITER =    109
 *** TIME =  0.939368         TIME INC =  0.788193E-02  NEW TRIANG MATRIX
 *** RESPONSE FREQ =  9.242       PERIOD=  0.1082      PTS/CYC =  14.    
 *** AUTO STEP TIME:  NEXT TIME INC = 0.78819E-02  UNCHANGED

 *** LOAD STEP     1   SUBSTEP   110  COMPLETED.    CUM ITER =    110
 *** TIME =  0.947250         TIME INC =  0.788193E-02  OLD TRIANG MATRIX
 *** RESPONSE FREQ =  8.541       PERIOD=  0.1171      PTS/CYC =  15.    
 *** AUTO TIME STEP:  NEXT TIME INC = 0.90061E-02  INCREASED (FACTOR = 1.1426)

 *** LOAD STEP     1   SUBSTEP   111  COMPLETED.    CUM ITER =    111
 *** TIME =  0.956256         TIME INC =  0.900606E-02  NEW TRIANG MATRIX
 *** RESPONSE FREQ =  8.498       PERIOD=  0.1177      PTS/CYC =  13.    
 *** AUTO TIME STEP:  NEXT TIME INC = 0.90524E-02  INCREASED (FACTOR = 1.0051)

 *** LOAD STEP     1   SUBSTEP   112  COMPLETED.    CUM ITER =    112
 *** TIME =  0.965309         TIME INC =  0.905239E-02  NEW TRIANG MATRIX
 *** RESPONSE FREQ =  8.560       PERIOD=  0.1168      PTS/CYC =  13.    
 *** AUTO TIME STEP:  NEXT TIME INC = 0.89867E-02  DECREASED (FACTOR = 0.9927)

 *** LOAD STEP     1   SUBSTEP   113  COMPLETED.    CUM ITER =    113
 *** TIME =  0.974296         TIME INC =  0.898675E-02  NEW TRIANG MATRIX
 *** RESPONSE FREQ =  8.674       PERIOD=  0.1153      PTS/CYC =  13.    
 *** AUTO TIME STEP:  NEXT TIME INC = 0.88680E-02  DECREASED (FACTOR = 0.9868)

 *** LOAD STEP     1   SUBSTEP   114  COMPLETED.    CUM ITER =    114
 *** TIME =  0.983164         TIME INC =  0.886797E-02  NEW TRIANG MATRIX
 *** RESPONSE FREQ =  8.937       PERIOD=  0.1119      PTS/CYC =  13.    
 *** AUTO TIME STEP:  NEXT TIME INC = 0.86070E-02  DECREASED (FACTOR = 0.9706)

 *** LOAD STEP     1   SUBSTEP   115  COMPLETED.    CUM ITER =    115
 *** TIME =  0.991771         TIME INC =  0.860704E-02  NEW TRIANG MATRIX
 *** RESPONSE FREQ =  9.990       PERIOD=  0.1001      PTS/CYC =  12.    
 *** AUTO TIME STEP:  NEXT TIME INC = 0.76999E-02  DECREASED (FACTOR = 0.8946)

 *** LOAD STEP     1   SUBSTEP   116  COMPLETED.    CUM ITER =    116
 *** TIME =  0.999470         TIME INC =  0.769988E-02  NEW TRIANG MATRIX
 *** RESPONSE FREQ =  8.494       PERIOD=  0.1177      PTS/CYC =  15.    
 *** AUTO STEP TIME:  NEXT TIME INC = 0.76999E-02  UNCHANGED

 *** LOAD STEP     1   SUBSTEP   117  COMPLETED.    CUM ITER =    117
 *** TIME =   1.00717         TIME INC =  0.769988E-02  OLD TRIANG MATRIX
 *** RESPONSE FREQ =  8.478       PERIOD=  0.1180      PTS/CYC =  15.    
 *** AUTO TIME STEP:  NEXT TIME INC = 0.90734E-02  INCREASED (FACTOR = 1.1784)

 *** LOAD STEP     1   SUBSTEP   118  COMPLETED.    CUM ITER =    118
 *** TIME =   1.01624         TIME INC =  0.907336E-02  NEW TRIANG MATRIX
 *** RESPONSE FREQ =  8.532       PERIOD=  0.1172      PTS/CYC =  13.    
 *** AUTO TIME STEP:  NEXT TIME INC = 0.90157E-02  DECREASED (FACTOR = 0.9936)

 *** LOAD STEP     1   SUBSTEP   119  COMPLETED.    CUM ITER =    119
 *** TIME =   1.02526         TIME INC =  0.901565E-02  NEW TRIANG MATRIX
 *** RESPONSE FREQ =  8.586       PERIOD=  0.1165      PTS/CYC =  13.    
 *** AUTO TIME STEP:  NEXT TIME INC = 0.89590E-02  DECREASED (FACTOR = 0.9937)

 *** LOAD STEP     1   SUBSTEP   120  COMPLETED.    CUM ITER =    120
 *** TIME =   1.03422         TIME INC =  0.895902E-02  NEW TRIANG MATRIX
 *** RESPONSE FREQ =  8.652       PERIOD=  0.1156      PTS/CYC =  13.    
 *** AUTO TIME STEP:  NEXT TIME INC = 0.88911E-02  DECREASED (FACTOR = 0.9924)

 *** LOAD STEP     1   SUBSTEP   121  COMPLETED.    CUM ITER =    121
 *** TIME =   1.04311         TIME INC =  0.889107E-02  NEW TRIANG MATRIX
 *** RESPONSE FREQ =  8.857       PERIOD=  0.1129      PTS/CYC =  13.    
 *** AUTO TIME STEP:  NEXT TIME INC = 0.86846E-02  DECREASED (FACTOR = 0.9768)

 *** LOAD STEP     1   SUBSTEP   122  COMPLETED.    CUM ITER =    122
 *** TIME =   1.05179         TIME INC =  0.868459E-02  NEW TRIANG MATRIX
 *** RESPONSE FREQ =  9.057       PERIOD=  0.1104      PTS/CYC =  13.    
 *** AUTO TIME STEP:  NEXT TIME INC = 0.84932E-02  DECREASED (FACTOR = 0.9780)

 *** LOAD STEP     1   SUBSTEP   123  COMPLETED.    CUM ITER =    123
 *** TIME =   1.06029         TIME INC =  0.849319E-02  NEW TRIANG MATRIX
 *** RESPONSE FREQ =  8.532       PERIOD=  0.1172      PTS/CYC =  14.    
 *** AUTO STEP TIME:  NEXT TIME INC = 0.84932E-02  UNCHANGED

 *** LOAD STEP     1   SUBSTEP   124  COMPLETED.    CUM ITER =    124
 *** TIME =   1.06878         TIME INC =  0.849319E-02  OLD TRIANG MATRIX
 *** RESPONSE FREQ =  8.535       PERIOD=  0.1172      PTS/CYC =  14.    
 *** AUTO TIME STEP:  NEXT TIME INC = 0.90123E-02  INCREASED (FACTOR = 1.0611)

 *** LOAD STEP     1   SUBSTEP   125  COMPLETED.    CUM ITER =    125
 *** TIME =   1.07779         TIME INC =  0.901228E-02  NEW TRIANG MATRIX
 *** RESPONSE FREQ =  8.546       PERIOD=  0.1170      PTS/CYC =  13.    
 *** AUTO TIME STEP:  NEXT TIME INC = 0.90008E-02  DECREASED (FACTOR = 0.9987)

 *** LOAD STEP     1   SUBSTEP   126  COMPLETED.    CUM ITER =    126
 *** TIME =   1.08679         TIME INC =  0.900076E-02  NEW TRIANG MATRIX
 *** RESPONSE FREQ =  8.569       PERIOD=  0.1167      PTS/CYC =  13.    
 *** AUTO TIME STEP:  NEXT TIME INC = 0.89764E-02  DECREASED (FACTOR = 0.9973)

 *** LOAD STEP     1   SUBSTEP   127  COMPLETED.    CUM ITER =    127
 *** TIME =   1.09577         TIME INC =  0.897640E-02  NEW TRIANG MATRIX
 *** RESPONSE FREQ =  8.666       PERIOD=  0.1154      PTS/CYC =  13.    
 *** AUTO TIME STEP:  NEXT TIME INC = 0.88761E-02  DECREASED (FACTOR = 0.9888)

 *** LOAD STEP     1   SUBSTEP   128  COMPLETED.    CUM ITER =    128
 *** TIME =   1.10465         TIME INC =  0.887610E-02  NEW TRIANG MATRIX
 *** RESPONSE FREQ =  9.936       PERIOD=  0.1006      PTS/CYC =  11.    
 *** AUTO TIME STEP:  NEXT TIME INC = 0.77419E-02  DECREASED (FACTOR = 0.8722)

 *** LOAD STEP     1   SUBSTEP   129  COMPLETED.    CUM ITER =    129
 *** TIME =   1.11239         TIME INC =  0.774187E-02  NEW TRIANG MATRIX
 *** RESPONSE FREQ =  8.822       PERIOD=  0.1133      PTS/CYC =  15.    
 *** AUTO STEP TIME:  NEXT TIME INC = 0.77419E-02  UNCHANGED

 *** LOAD STEP     1   SUBSTEP   130  COMPLETED.    CUM ITER =    130
 *** TIME =   1.12013         TIME INC =  0.774187E-02  OLD TRIANG MATRIX
 *** RESPONSE FREQ =  8.559       PERIOD=  0.1168      PTS/CYC =  15.    
 *** AUTO TIME STEP:  NEXT TIME INC = 0.89871E-02  INCREASED (FACTOR = 1.1608)

 *** LOAD STEP     1   SUBSTEP   131  COMPLETED.    CUM ITER =    131
 *** TIME =   1.12912         TIME INC =  0.898713E-02  NEW TRIANG MATRIX
 *** RESPONSE FREQ =  8.528       PERIOD=  0.1173      PTS/CYC =  13.    
 *** AUTO TIME STEP:  NEXT TIME INC = 0.90200E-02  INCREASED (FACTOR = 1.0037)

 *** LOAD STEP     1   SUBSTEP   132  COMPLETED.    CUM ITER =    132
 *** TIME =   1.13814         TIME INC =  0.902001E-02  NEW TRIANG MATRIX
 *** RESPONSE FREQ =  8.547       PERIOD=  0.1170      PTS/CYC =  13.    
 *** AUTO TIME STEP:  NEXT TIME INC = 0.90005E-02  DECREASED (FACTOR = 0.9978)

 *** LOAD STEP     1   SUBSTEP   133  COMPLETED.    CUM ITER =    133
 *** TIME =   1.14714         TIME INC =  0.900052E-02  NEW TRIANG MATRIX
 *** RESPONSE FREQ =  8.621       PERIOD=  0.1160      PTS/CYC =  13.    
 *** AUTO TIME STEP:  NEXT TIME INC = 0.89226E-02  DECREASED (FACTOR = 0.9913)

 *** LOAD STEP     1   SUBSTEP   134  COMPLETED.    CUM ITER =    134
 *** TIME =   1.15606         TIME INC =  0.892256E-02  NEW TRIANG MATRIX
 *** RESPONSE FREQ =  8.942       PERIOD=  0.1118      PTS/CYC =  13.    
 *** AUTO TIME STEP:  NEXT TIME INC = 0.86022E-02  DECREASED (FACTOR = 0.9641)

 *** LOAD STEP     1   SUBSTEP   135  COMPLETED.    CUM ITER =    135
 *** TIME =   1.16466         TIME INC =  0.860215E-02  NEW TRIANG MATRIX
 *** RESPONSE FREQ =  10.71       PERIOD=  0.9336E-01  PTS/CYC =  11.    
 *** AUTO TIME STEP:  NEXT TIME INC = 0.71817E-02  DECREASED (FACTOR = 0.8349)

 *** LOAD STEP     1   SUBSTEP   136  COMPLETED.    CUM ITER =    136
 *** TIME =   1.17184         TIME INC =  0.718174E-02  NEW TRIANG MATRIX
 *** RESPONSE FREQ =  8.644       PERIOD=  0.1157      PTS/CYC =  16.    
 *** AUTO STEP TIME:  NEXT TIME INC = 0.71817E-02  UNCHANGED

 *** LOAD STEP     1   SUBSTEP   137  COMPLETED.    CUM ITER =    137
 *** TIME =   1.17903         TIME INC =  0.718174E-02  OLD TRIANG MATRIX
 *** RESPONSE FREQ =  8.537       PERIOD=  0.1171      PTS/CYC =  16.    
 *** AUTO TIME STEP:  NEXT TIME INC = 0.90103E-02  INCREASED (FACTOR = 1.2546)

 *** LOAD STEP     1   SUBSTEP   138  COMPLETED.    CUM ITER =    138
 *** TIME =   1.18804         TIME INC =  0.901035E-02  NEW TRIANG MATRIX
 *** RESPONSE FREQ =  8.552       PERIOD=  0.1169      PTS/CYC =  13.    
 *** AUTO TIME STEP:  NEXT TIME INC = 0.89946E-02  DECREASED (FACTOR = 0.9983)

 *** LOAD STEP     1   SUBSTEP   139  COMPLETED.    CUM ITER =    139
 *** TIME =   1.19703         TIME INC =  0.899459E-02  NEW TRIANG MATRIX
 *** RESPONSE FREQ =  8.605       PERIOD=  0.1162      PTS/CYC =  13.    
 *** AUTO TIME STEP:  NEXT TIME INC = 0.89394E-02  DECREASED (FACTOR = 0.9939)

 *** LOAD STEP     1   SUBSTEP   140  COMPLETED.    CUM ITER =    140
 *** TIME =   1.20597         TIME INC =  0.893940E-02  NEW TRIANG MATRIX
 *** RESPONSE FREQ =  8.704       PERIOD=  0.1149      PTS/CYC =  13.    
 *** AUTO TIME STEP:  NEXT TIME INC = 0.88381E-02  DECREASED (FACTOR = 0.9887)

 *** LOAD STEP     1   SUBSTEP   141  COMPLETED.    CUM ITER =    141
 *** TIME =   1.21481         TIME INC =  0.883812E-02  NEW TRIANG MATRIX
 *** RESPONSE FREQ =  9.060       PERIOD=  0.1104      PTS/CYC =  12.    
 *** AUTO TIME STEP:  NEXT TIME INC = 0.84907E-02  DECREASED (FACTOR = 0.9607)

 *** LOAD STEP     1   SUBSTEP   142  COMPLETED.    CUM ITER =    142
 *** TIME =   1.22330         TIME INC =  0.849068E-02  NEW TRIANG MATRIX
 *** RESPONSE FREQ =  9.501       PERIOD=  0.1053      PTS/CYC =  12.    
 *** AUTO TIME STEP:  NEXT TIME INC = 0.80963E-02  DECREASED (FACTOR = 0.9536)

 *** LOAD STEP     1   SUBSTEP   143  COMPLETED.    CUM ITER =    143
 *** TIME =   1.23139         TIME INC =  0.809632E-02  NEW TRIANG MATRIX
 *** RESPONSE FREQ =  8.598       PERIOD=  0.1163      PTS/CYC =  14.    
 *** AUTO STEP TIME:  NEXT TIME INC = 0.80963E-02  UNCHANGED

 *** LOAD STEP     1   SUBSTEP   144  COMPLETED.    CUM ITER =    144
 *** TIME =   1.23949         TIME INC =  0.809632E-02  OLD TRIANG MATRIX
 *** RESPONSE FREQ =  8.601       PERIOD=  0.1163      PTS/CYC =  14.    
 *** AUTO TIME STEP:  NEXT TIME INC = 0.89438E-02  INCREASED (FACTOR = 1.1047)

 *** LOAD STEP     1   SUBSTEP   145  COMPLETED.    CUM ITER =    145
 *** TIME =   1.24844         TIME INC =  0.894379E-02  NEW TRIANG MATRIX
 *** RESPONSE FREQ =  8.622       PERIOD=  0.1160      PTS/CYC =  13.    
 *** AUTO TIME STEP:  NEXT TIME INC = 0.89213E-02  DECREASED (FACTOR = 0.9975)

 *** LOAD STEP     1   SUBSTEP   146  COMPLETED.    CUM ITER =    146
 *** TIME =   1.25736         TIME INC =  0.892135E-02  NEW TRIANG MATRIX
 *** RESPONSE FREQ =  8.639       PERIOD=  0.1158      PTS/CYC =  13.    
 *** AUTO TIME STEP:  NEXT TIME INC = 0.89042E-02  DECREASED (FACTOR = 0.9981)

 *** LOAD STEP     1   SUBSTEP   147  COMPLETED.    CUM ITER =    147
 *** TIME =   1.26626         TIME INC =  0.890423E-02  NEW TRIANG MATRIX
 *** RESPONSE FREQ =  8.652       PERIOD=  0.1156      PTS/CYC =  13.    
 *** AUTO TIME STEP:  NEXT TIME INC = 0.88912E-02  DECREASED (FACTOR = 0.9985)

 *** LOAD STEP     1   SUBSTEP   148  COMPLETED.    CUM ITER =    148
 *** TIME =   1.27515         TIME INC =  0.889121E-02  NEW TRIANG MATRIX
 *** RESPONSE FREQ =  8.867       PERIOD=  0.1128      PTS/CYC =  13.    
 *** AUTO TIME STEP:  NEXT TIME INC = 0.86748E-02  DECREASED (FACTOR = 0.9757)

 *** LOAD STEP     1   SUBSTEP   149  COMPLETED.    CUM ITER =    149
 *** TIME =   1.28383         TIME INC =  0.867480E-02  NEW TRIANG MATRIX
 *** RESPONSE FREQ =  8.881       PERIOD=  0.1126      PTS/CYC =  13.    
 *** AUTO TIME STEP:  NEXT TIME INC = 0.86618E-02  DECREASED (FACTOR = 0.9985)

 *** LOAD STEP     1   SUBSTEP   150  COMPLETED.    CUM ITER =    150
 *** TIME =   1.29249         TIME INC =  0.866175E-02  NEW TRIANG MATRIX
 *** RESPONSE FREQ =  8.705       PERIOD=  0.1149      PTS/CYC =  13.    
 *** AUTO STEP TIME:  NEXT TIME INC = 0.86618E-02  UNCHANGED

 *** LOAD STEP     1   SUBSTEP   151  COMPLETED.    CUM ITER =    151
 *** TIME =   1.30115         TIME INC =  0.866175E-02  OLD TRIANG MATRIX
 *** RESPONSE FREQ =  8.646       PERIOD=  0.1157      PTS/CYC =  13.    
 *** AUTO TIME STEP:  NEXT TIME INC = 0.88965E-02  INCREASED (FACTOR = 1.0271)

 *** LOAD STEP     1   SUBSTEP   152  COMPLETED.    CUM ITER =    152
 *** TIME =   1.31005         TIME INC =  0.889650E-02  NEW TRIANG MATRIX
 *** RESPONSE FREQ =  8.590       PERIOD=  0.1164      PTS/CYC =  13.    
 *** AUTO TIME STEP:  NEXT TIME INC = 0.89553E-02  INCREASED (FACTOR = 1.0066)

 *** LOAD STEP     1   SUBSTEP   153  COMPLETED.    CUM ITER =    153
 *** TIME =   1.31900         TIME INC =  0.895528E-02  NEW TRIANG MATRIX
 *** RESPONSE FREQ =  8.515       PERIOD=  0.1174      PTS/CYC =  13.    
 *** AUTO TIME STEP:  NEXT TIME INC = 0.90343E-02  INCREASED (FACTOR = 1.0088)

 *** LOAD STEP     1   SUBSTEP   154  COMPLETED.    CUM ITER =    154
 *** TIME =   1.32804         TIME INC =  0.903430E-02  NEW TRIANG MATRIX
 *** RESPONSE FREQ =  8.436       PERIOD=  0.1185      PTS/CYC =  13.    
 *** AUTO TIME STEP:  NEXT TIME INC = 0.91184E-02  INCREASED (FACTOR = 1.0093)

 *** LOAD STEP     1   SUBSTEP   155  COMPLETED.    CUM ITER =    155
 *** TIME =   1.33715         TIME INC =  0.911840E-02  NEW TRIANG MATRIX
 *** RESPONSE FREQ =  9.815       PERIOD=  0.1019      PTS/CYC =  11.    
 *** AUTO TIME STEP:  NEXT TIME INC = 0.78369E-02  DECREASED (FACTOR = 0.8595)

 *** LOAD STEP     1   SUBSTEP   156  COMPLETED.    CUM ITER =    156
 *** TIME =   1.34499         TIME INC =  0.783692E-02  NEW TRIANG MATRIX
 *** RESPONSE FREQ =  8.905       PERIOD=  0.1123      PTS/CYC =  14.    
 *** AUTO STEP TIME:  NEXT TIME INC = 0.78369E-02  UNCHANGED

 *** LOAD STEP     1   SUBSTEP   157  COMPLETED.    CUM ITER =    157
 *** TIME =   1.35283         TIME INC =  0.783692E-02  OLD TRIANG MATRIX
 *** RESPONSE FREQ =  8.678       PERIOD=  0.1152      PTS/CYC =  15.    
 *** AUTO TIME STEP:  NEXT TIME INC = 0.88638E-02  INCREASED (FACTOR = 1.1310)

 *** LOAD STEP     1   SUBSTEP   158  COMPLETED.    CUM ITER =    158
 *** TIME =   1.36169         TIME INC =  0.886385E-02  NEW TRIANG MATRIX
 *** RESPONSE FREQ =  8.552       PERIOD=  0.1169      PTS/CYC =  13.    
 *** AUTO TIME STEP:  NEXT TIME INC = 0.89950E-02  INCREASED (FACTOR = 1.0148)

 *** LOAD STEP     1   SUBSTEP   159  COMPLETED.    CUM ITER =    159
 *** TIME =   1.37069         TIME INC =  0.899505E-02  NEW TRIANG MATRIX
 *** RESPONSE FREQ =  8.453       PERIOD=  0.1183      PTS/CYC =  13.    
 *** AUTO TIME STEP:  NEXT TIME INC = 0.90999E-02  INCREASED (FACTOR = 1.0117)

 *** LOAD STEP     1   SUBSTEP   160  COMPLETED.    CUM ITER =    160
 *** TIME =   1.37979         TIME INC =  0.909990E-02  NEW TRIANG MATRIX
 *** RESPONSE FREQ =  8.393       PERIOD=  0.1192      PTS/CYC =  13.    
 *** AUTO TIME STEP:  NEXT TIME INC = 0.91657E-02  INCREASED (FACTOR = 1.0072)

 *** LOAD STEP     1   SUBSTEP   161  COMPLETED.    CUM ITER =    161
 *** TIME =   1.38895         TIME INC =  0.916567E-02  NEW TRIANG MATRIX
 *** RESPONSE FREQ =  8.862       PERIOD=  0.1128      PTS/CYC =  12.    
 *** AUTO TIME STEP:  NEXT TIME INC = 0.86803E-02  DECREASED (FACTOR = 0.9470)

 *** LOAD STEP     1   SUBSTEP   162  COMPLETED.    CUM ITER =    162
 *** TIME =   1.39763         TIME INC =  0.868027E-02  NEW TRIANG MATRIX
 *** RESPONSE FREQ =  9.436       PERIOD=  0.1060      PTS/CYC =  12.    
 *** AUTO TIME STEP:  NEXT TIME INC = 0.81522E-02  DECREASED (FACTOR = 0.9392)

 *** LOAD STEP     1   SUBSTEP   163  COMPLETED.    CUM ITER =    163
 *** TIME =   1.40579         TIME INC =  0.815225E-02  NEW TRIANG MATRIX
 *** RESPONSE FREQ =  8.714       PERIOD=  0.1148      PTS/CYC =  14.    
 *** AUTO STEP TIME:  NEXT TIME INC = 0.81522E-02  UNCHANGED

 *** LOAD STEP     1   SUBSTEP   164  COMPLETED.    CUM ITER =    164
 *** TIME =   1.41394         TIME INC =  0.815225E-02  OLD TRIANG MATRIX
 *** RESPONSE FREQ =  8.511       PERIOD=  0.1175      PTS/CYC =  14.    
 *** AUTO TIME STEP:  NEXT TIME INC = 0.90377E-02  INCREASED (FACTOR = 1.1086)

 *** LOAD STEP     1   SUBSTEP   165  COMPLETED.    CUM ITER =    165
 *** TIME =   1.42298         TIME INC =  0.903770E-02  NEW TRIANG MATRIX
 *** RESPONSE FREQ =  8.417       PERIOD=  0.1188      PTS/CYC =  13.    
 *** AUTO TIME STEP:  NEXT TIME INC = 0.91395E-02  INCREASED (FACTOR = 1.0113)

 *** LOAD STEP     1   SUBSTEP   166  COMPLETED.    CUM ITER =    166
 *** TIME =   1.43211         TIME INC =  0.913948E-02  NEW TRIANG MATRIX
 *** RESPONSE FREQ =  8.383       PERIOD=  0.1193      PTS/CYC =  13.    
 *** AUTO TIME STEP:  NEXT TIME INC = 0.91756E-02  INCREASED (FACTOR = 1.0040)

 *** LOAD STEP     1   SUBSTEP   167  COMPLETED.    CUM ITER =    167
 *** TIME =   1.44129         TIME INC =  0.917560E-02  NEW TRIANG MATRIX
 *** RESPONSE FREQ =  8.517       PERIOD=  0.1174      PTS/CYC =  13.    
 *** AUTO TIME STEP:  NEXT TIME INC = 0.90314E-02  DECREASED (FACTOR = 0.9843)

 *** LOAD STEP     1   SUBSTEP   168  COMPLETED.    CUM ITER =    168
 *** TIME =   1.45032         TIME INC =  0.903135E-02  NEW TRIANG MATRIX
 *** RESPONSE FREQ =  9.845       PERIOD=  0.1016      PTS/CYC =  11.    
 *** AUTO TIME STEP:  NEXT TIME INC = 0.78131E-02  DECREASED (FACTOR = 0.8651)

 *** LOAD STEP     1   SUBSTEP   169  COMPLETED.    CUM ITER =    169
 *** TIME =   1.45813         TIME INC =  0.781310E-02  NEW TRIANG MATRIX
 *** RESPONSE FREQ =  8.833       PERIOD=  0.1132      PTS/CYC =  14.    
 *** AUTO STEP TIME:  NEXT TIME INC = 0.78131E-02  UNCHANGED

 *** LOAD STEP     1   SUBSTEP   170  COMPLETED.    CUM ITER =    170
 *** TIME =   1.46595         TIME INC =  0.781310E-02  OLD TRIANG MATRIX
 *** RESPONSE FREQ =  8.495       PERIOD=  0.1177      PTS/CYC =  15.    
 *** AUTO TIME STEP:  NEXT TIME INC = 0.90548E-02  INCREASED (FACTOR = 1.1589)

 *** LOAD STEP     1   SUBSTEP   171  COMPLETED.    CUM ITER =    171
 *** TIME =   1.47500         TIME INC =  0.905483E-02  NEW TRIANG MATRIX
 *** RESPONSE FREQ =  8.400       PERIOD=  0.1190      PTS/CYC =  13.    
 *** AUTO TIME STEP:  NEXT TIME INC = 0.91570E-02  INCREASED (FACTOR = 1.0113)

 *** LOAD STEP     1   SUBSTEP   172  COMPLETED.    CUM ITER =    172
 *** TIME =   1.48416         TIME INC =  0.915697E-02  NEW TRIANG MATRIX
 *** RESPONSE FREQ =  8.380       PERIOD=  0.1193      PTS/CYC =  13.    
 *** AUTO TIME STEP:  NEXT TIME INC = 0.91798E-02  INCREASED (FACTOR = 1.0025)

 *** LOAD STEP     1   SUBSTEP   173  COMPLETED.    CUM ITER =    173
 *** TIME =   1.49334         TIME INC =  0.917982E-02  NEW TRIANG MATRIX
 *** RESPONSE FREQ =  8.429       PERIOD=  0.1186      PTS/CYC =  13.    
 *** AUTO TIME STEP:  NEXT TIME INC = 0.66603E-02  DECREASED (FACTOR = 0.7255)

 *** LOAD STEP     1   SUBSTEP   174  COMPLETED.    CUM ITER =    174
 *** TIME =   1.50000         TIME INC =  0.666031E-02  NEW TRIANG MATRIX
 *** RESPONSE FREQ =  8.707       PERIOD=  0.1148      PTS/CYC =  17.    


 *** ANSYS BINARY FILE STATISTICS
  BUFFER SIZE USED= 16384
        2.188 MB WRITTEN ON ELEMENT SAVED DATA FILE: file0.esav
       12.438 MB WRITTEN ON ASSEMBLED MATRIX FILE: file0.full
      171.625 MB WRITTEN ON RESULTS FILE: file0.rst
 *************** Write FE CONNECTORS *********

 WRITE OUT CONSTRAINT EQUATIONS TO FILE= file.ce                                                                                                                                                                                                                                                             
 ****************************************************
 *************** FINISHED SOLVE FOR LS 1 *************

 *GET  _WALLASOL  FROM  ACTI  ITEM=TIME WALL  VALUE=  8.37305556    

 PRINTOUT RESUMED BY /GOP

 FINISH SOLUTION PROCESSING


 ***** ROUTINE COMPLETED *****  CP =       141.812



 *** ANSYS - ENGINEERING ANALYSIS SYSTEM  RELEASE 2021 R1          21.1     ***
 DISTRIBUTED ANSYS Mechanical Enterprise Academic Student      

 00000000  VERSION=WINDOWS x64   08:22:24  MAR 24, 2021 CP=    141.812

 Fork--Transient (B5)                                                          



          ***** ANSYS RESULTS INTERPRETATION (POST1) *****

 *** NOTE ***                            CP =     141.812   TIME= 08:22:24
 Reading results into the database (SET command) will update the current 
 displacement and force boundary conditions in the database with the     
 values from the results file for that load set.  Note that any          
 subsequent solutions will use these values unless action is taken to    
 either SAVE the current values or not overwrite them (/EXIT,NOSAVE).    

 Set Encoding of XML File to:ISO-8859-1

 Set Output of XML File to:
     PARM,     ,     ,     ,     ,     ,     ,     ,     ,     ,     ,     ,
         ,     ,     ,     ,     ,     ,     ,

 DATABASE WRITTEN ON FILE  parm.xml                                                                                                                                                                                                                                                            

 EXIT THE ANSYS POST1 DATABASE PROCESSOR


 ***** ROUTINE COMPLETED *****  CP =       141.828



 PRINTOUT RESUMED BY /GOP

 *GET  _WALLDONE  FROM  ACTI  ITEM=TIME WALL  VALUE=  8.37333333    

 PARAMETER _PREPTIME =     0.000000000    

 PARAMETER _SOLVTIME =     147.0000000    

 PARAMETER _POSTTIME =     1.000000000    

 PARAMETER _TOTALTIM =     148.0000000    

 *GET  _DLBRATIO  FROM  ACTI  ITEM=SOLU DLBR  VALUE=  1.32723949    

 *GET  _COMBTIME  FROM  ACTI  ITEM=SOLU COMB  VALUE=  1.64056780    
 --- Total number of nodes = 7015
 --- Total number of elements = 4186
 --- Element load balance ratio = 1.32723949
 --- Time to combine distributed files = 1.6405678

 EXIT ANSYS WITHOUT SAVING DATABASE


 NUMBER OF WARNING MESSAGES ENCOUNTERED=          1
 NUMBER OF ERROR   MESSAGES ENCOUNTERED=          0

+--------- D I S T R I B U T E D   A N S Y S   S T A T I S T I C S ------------+

Release: 2021 R1            Build: 21.1       Update: UP20201109   Platform: WINDOWS x64 
Date Run: 03/24/2021   Time: 08:22     Process ID: 15496
Operating System: Windows 10  (Build: 19041)

Processor Model: Intel(R) Core(TM) i7-7700HQ CPU @ 2.80GHz

Compiler: Intel(R) FORTRAN Compiler Version 19.0.0  (Build: 20190206)
          Intel(R) C/C++ Compiler Version 19.0.0  (Build: 20190206)
          Intel(R) Math Kernel Library Version 2020.0.0 Product Build 20191125

Number of machines requested            :    1
Total number of cores available         :    8
Number of physical cores available      :    4
Number of processes requested           :    2
Number of threads per process requested :    1
Total number of cores requested         :    2 (Distributed Memory Parallel)               
MPI Type: INTELMPI
MPI Version: Intel(R) MPI Library 2018 Update 3 for Windows* OS


GPU Acceleration: Not Requested

Job Name: file0
Input File: dummy.dat

  Core                Machine Name   Working Directory
 -----------------------------------------------------
     0             DESKTOP-BTDLNGA   C:\Users\ASUS\Documents\ANSYS\ANSYS2021\Sec12-2\_ProjectScratch\Scr9D06
     1             DESKTOP-BTDLNGA   C:\Users\ASUS\Documents\ANSYS\ANSYS2021\Sec12-2\_ProjectScratch\Scr9D06
 
Latency time from master to core     1 =    1.665 microseconds
 
Communication speed from master to core     1 =  4909.24 MB/sec

Total CPU time for main thread                    :      141.8 seconds
Total CPU time summed for all threads             :      142.1 seconds

Elapsed time spent obtaining a license            :        0.5 seconds
Elapsed time spent pre-processing model (/PREP7)  :        0.0 seconds
Elapsed time spent solution - preprocessing       :        0.2 seconds
Elapsed time spent computing solution             :      146.4 seconds
Elapsed time spent solution - postprocessing      :        1.6 seconds
Elapsed time spent post-processing model (/POST1) :        0.0 seconds
 
Equation solver used                              :            Sparse (symmetric)
Equation solver computational rate                :       22.4 Gflops
Equation solver effective I/O rate                :       16.2 GB/sec

Maximum total memory used                         :      313.0 MB
Maximum total memory allocated                    :     3136.0 MB
Total physical memory available                   :         16 GB

Total amount of I/O written to disk               :        2.9 GB
Total amount of I/O read from disk                :        5.5 GB

+------ E N D   D I S T R I B U T E D   A N S Y S   S T A T I S T I C S -------+


 *---------------------------------------------------------------------------*
 |                                                                           |
 |                       DISTRIBUTED ANSYS RUN COMPLETED                     |
 |                                                                           |
 |---------------------------------------------------------------------------|
 |                                                                           |
 | Ansys 2021 R1               Build 21.1         UP20201109     WINDOWS x64 |
 |                                                                           |
 |---------------------------------------------------------------------------|
 |                                                                           |
 | Database Requested(-db)  1024 MB    Scratch Memory Requested      1024 MB |
 | Maximum Database Used       8 MB    Maximum Scratch Memory Used    167 MB |
 |                                                                           |
 |---------------------------------------------------------------------------|
 |                                                                           |
 |        CP Time      (sec) =        142.078       Time  =  08:22:25        |
 |        Elapsed Time (sec) =        151.000       Date  =  03/24/2021      |
 |                                                                           |
 *---------------------------------------------------------------------------*
